/*---------------------------------------------------------------------------*\
| =========                 |                                                 |
| \\      /  F ield         | OpenFOAM: The Open Source CFD Toolbox           |
|  \\    /   O peration     | Version:  2306                                  |
|   \\  /    A nd           | Website:  www.openfoam.com                      |
|    \\/     M anipulation  |                                                 |
\*---------------------------------------------------------------------------*/
Build  : _fbf00d6b-20230626 OPENFOAM=2306 version=2306
Arch   : "LSB;label=32;scalar=64"
Exec   : interFoam -parallel
Date   : Jan 21 2025
Time   : 16:31:57
Host   : DESKTOP-T7OT4QA
PID    : 208523
I/O    : uncollated
Case   : /mnt/h/hotLeg_turb
nProcs : 20
Hosts  :
(
    (DESKTOP-T7OT4QA 20)
)
Pstream initialized with:
    floatTransfer      : false
    nProcsSimpleSum    : 0
    nonBlockingExchange: 0 (tuning: 0)
    exchange algorithm : -1
    commsType          : nonBlocking
    polling iterations : 0
trapFpe: Floating point exception trapping enabled (FOAM_SIGFPE).
fileModificationChecking : Monitoring run-time modified files using timeStampMaster (fileModificationSkew 5, maxFileModificationPolls 20)
allowSystemOperations : Allowing user-supplied system call operations

// * * * * * * * * * * * * * * * * * * * * * * * * * * * * * * * * * * * * * //
Create time

--> FOAM Warning : 
    From static Foam::IOstreamOption::compressionType Foam::IOstreamOption::compressionEnum(const Foam::word&, Foam::IOstreamOption::compressionType)
    in file db/options/IOstreamOption.C at line 115
    Unknown compression specifier 'uncompressed', using compression off
Create mesh for time = 0


PIMPLE: Operating solver in PISO mode

Reading field p_rgh

Reading field U

Reading/calculating face flux field phi

Reading transportProperties

Selecting incompressible transport model Newtonian
Selecting incompressible transport model Newtonian
Selecting turbulence model type RAS
Selecting RAS turbulence model kOmega
RAS
{
    RASModel        kOmega;
    turbulence      on;
    printCoeffs     on;
    betaStar        0.09;
    beta            0.072;
    gamma           0.52;
    alphaK          0.5;
    alphaOmega      0.5;
}


Reading g

Reading hRef
Calculating field g.h

No MRF models present

No finite volume options present
DICPCG:  Solving for pcorr, Initial residual = 1, Final residual = 9.82157e-06, No Iterations 973
time step continuity errors : sum local = 1.8988e-11, global = 5.77036e-15, cumulative = 5.77036e-15
Courant Number mean: 0.00204642 max: 0.507614

Starting time loop

Courant Number mean: 0.00204642 max: 0.507614
Interface Courant Number mean: 0 max: 0
deltaT = 0.000119048
Time = 0.000119048

PIMPLE: iteration 1
smoothSolver:  Solving for alpha.water, Initial residual = 1, Final residual = 7.512e-11, No Iterations 2
Phase-1 volume fraction = 8.89575e-08  Min(alpha.water) = 0  Max(alpha.water) = 1
MULES: Correcting alpha.water
MULES: Correcting alpha.water
Phase-1 volume fraction = 8.89575e-08  Min(alpha.water) = -3.98023e-18  Max(alpha.water) = 1
smoothSolver:  Solving for Ux, Initial residual = 1, Final residual = 1.11349e-08, No Iterations 3
smoothSolver:  Solving for Uy, Initial residual = 1, Final residual = 8.99732e-09, No Iterations 2
smoothSolver:  Solving for Uz, Initial residual = 1, Final residual = 4.61771e-09, No Iterations 2
DICPCG:  Solving for p_rgh, Initial residual = 1, Final residual = 0.0497839, No Iterations 803
time step continuity errors : sum local = 3.08008e-07, global = -1.7486e-10, cumulative = -1.74854e-10
DICPCG:  Solving for p_rgh, Initial residual = 0.23494, Final residual = 0.00809742, No Iterations 3
time step continuity errors : sum local = 2.76096e-05, global = 3.65501e-07, cumulative = 3.65326e-07
DICPCG:  Solving for p_rgh, Initial residual = 0.0300796, Final residual = 9.63233e-08, No Iterations 910
time step continuity errors : sum local = 4.05324e-10, global = 2.8356e-14, cumulative = 3.65326e-07
smoothSolver:  Solving for omega, Initial residual = 0.00116316, Final residual = 8.74667e-07, No Iterations 2
bounding omega, min: -137.466 max: 4146.8 average: 42.8916
smoothSolver:  Solving for k, Initial residual = 1, Final residual = 4.78286e-06, No Iterations 4
bounding k, min: -0.000282707 max: 0.0113535 average: 1.96728e-05
ExecutionTime = 6.18 s  ClockTime = 8 s

Courant Number mean: 0.00253933 max: 0.712315
Interface Courant Number mean: 0 max: 0
deltaT = 0.000135356
Time = 0.000254403

PIMPLE: iteration 1
smoothSolver:  Solving for alpha.water, Initial residual = 0.133554, Final residual = 3.3978e-11, No Iterations 2
Phase-1 volume fraction = 1.90101e-07  Min(alpha.water) = 0  Max(alpha.water) = 1
MULES: Correcting alpha.water
MULES: Correcting alpha.water
Phase-1 volume fraction = 1.90101e-07  Min(alpha.water) = -5.48381e-22  Max(alpha.water) = 1
smoothSolver:  Solving for Ux, Initial residual = 0.280927, Final residual = 3.16171e-07, No Iterations 3
smoothSolver:  Solving for Uy, Initial residual = 0.357445, Final residual = 3.73721e-07, No Iterations 3
smoothSolver:  Solving for Uz, Initial residual = 0.429943, Final residual = 9.24697e-07, No Iterations 6
DICPCG:  Solving for p_rgh, Initial residual = 0.0243911, Final residual = 0.00121637, No Iterations 759
time step continuity errors : sum local = 5.60841e-06, global = -5.6145e-11, cumulative = 3.6527e-07
DICPCG:  Solving for p_rgh, Initial residual = 0.617769, Final residual = 0.0211149, No Iterations 3
time step continuity errors : sum local = 3.45843e-05, global = -4.9364e-07, cumulative = -1.2837e-07
DICPCG:  Solving for p_rgh, Initial residual = 0.193737, Final residual = 9.55847e-08, No Iterations 947
time step continuity errors : sum local = 7.83649e-11, global = -6.48036e-15, cumulative = -1.2837e-07
smoothSolver:  Solving for omega, Initial residual = 0.00111067, Final residual = 2.92919e-06, No Iterations 2
bounding omega, min: -43.2765 max: 4146.8 average: 43.0542
smoothSolver:  Solving for k, Initial residual = 0.26199, Final residual = 5.65633e-06, No Iterations 4
bounding k, min: -0.0020612 max: 0.078126 average: 2.15353e-05
ExecutionTime = 10.54 s  ClockTime = 12 s

Courant Number mean: 0.00286679 max: 0.767878
Interface Courant Number mean: 9.95409e-08 max: 0.0237281
deltaT = 0.000152275
Time = 0.000406678

PIMPLE: iteration 1
smoothSolver:  Solving for alpha.water, Initial residual = 0.0750265, Final residual = 4.05074e-11, No Iterations 2
Phase-1 volume fraction = 3.03887e-07  Min(alpha.water) = -3.48175e-46  Max(alpha.water) = 1
MULES: Correcting alpha.water
MULES: Correcting alpha.water
Phase-1 volume fraction = 3.03887e-07  Min(alpha.water) = -6.20446e-27  Max(alpha.water) = 1
smoothSolver:  Solving for Ux, Initial residual = 0.011914, Final residual = 4.11714e-07, No Iterations 3
smoothSolver:  Solving for Uy, Initial residual = 0.0668373, Final residual = 9.55135e-07, No Iterations 7
smoothSolver:  Solving for Uz, Initial residual = 0.0212054, Final residual = 8.49482e-07, No Iterations 7
DICPCG:  Solving for p_rgh, Initial residual = 0.509008, Final residual = 0.0231648, No Iterations 4
time step continuity errors : sum local = 7.02455e-06, global = 1.72243e-07, cumulative = 4.38725e-08
DICPCG:  Solving for p_rgh, Initial residual = 0.128781, Final residual = 0.00610951, No Iterations 68
time step continuity errors : sum local = 1.25692e-06, global = 1.79155e-07, cumulative = 2.23027e-07
DICPCG:  Solving for p_rgh, Initial residual = 0.110126, Final residual = 9.87836e-08, No Iterations 918
time step continuity errors : sum local = 2.11695e-11, global = -4.2013e-15, cumulative = 2.23027e-07
smoothSolver:  Solving for omega, Initial residual = 0.00136992, Final residual = 4.36317e-06, No Iterations 2
bounding omega, min: -133.81 max: 4146.79 average: 43.2186
smoothSolver:  Solving for k, Initial residual = 0.180684, Final residual = 9.97328e-06, No Iterations 64
bounding k, min: -0.00477531 max: 0.169788 average: 2.44035e-05
ExecutionTime = 13.76 s  ClockTime = 15 s

Courant Number mean: 0.00323247 max: 0.888801
Interface Courant Number mean: 2.12948e-07 max: 0.0327819
deltaT = 0.000168304
Time = 0.000574982

PIMPLE: iteration 1
smoothSolver:  Solving for alpha.water, Initial residual = 0.0530822, Final residual = 6.85526e-11, No Iterations 2
Phase-1 volume fraction = 4.29651e-07  Min(alpha.water) = -1.92838e-90  Max(alpha.water) = 1
MULES: Correcting alpha.water
MULES: Correcting alpha.water
Phase-1 volume fraction = 4.29651e-07  Min(alpha.water) = -1.57222e-26  Max(alpha.water) = 1
smoothSolver:  Solving for Ux, Initial residual = 0.00478139, Final residual = 5.17268e-07, No Iterations 2
smoothSolver:  Solving for Uy, Initial residual = 0.0304492, Final residual = 8.78774e-07, No Iterations 3
smoothSolver:  Solving for Uz, Initial residual = 0.00945338, Final residual = 1.54755e-07, No Iterations 3
DICPCG:  Solving for p_rgh, Initial residual = 0.445794, Final residual = 0.0175265, No Iterations 3
time step continuity errors : sum local = 2.0623e-06, global = -4.99199e-08, cumulative = 1.73107e-07
DICPCG:  Solving for p_rgh, Initial residual = 0.117331, Final residual = 0.00578081, No Iterations 19
time step continuity errors : sum local = 4.74461e-07, global = -5.61682e-08, cumulative = 1.16939e-07
DICPCG:  Solving for p_rgh, Initial residual = 0.0434037, Final residual = 9.93706e-08, No Iterations 906
time step continuity errors : sum local = 8.02144e-12, global = -3.78566e-15, cumulative = 1.16939e-07
smoothSolver:  Solving for omega, Initial residual = 0.00119704, Final residual = 3.08542e-06, No Iterations 2
bounding omega, min: -52.5032 max: 4146.79 average: 43.3951
smoothSolver:  Solving for k, Initial residual = 0.131439, Final residual = 2.74165e-06, No Iterations 4
bounding k, min: -0.00242365 max: 0.214259 average: 2.8122e-05
ExecutionTime = 16.66 s  ClockTime = 18 s

Courant Number mean: 0.00357197 max: 0.986154
Interface Courant Number mean: 2.55281e-07 max: 0.0405727
deltaT = 0.000171364
Time = 0.000746346

PIMPLE: iteration 1
smoothSolver:  Solving for alpha.water, Initial residual = 0.0387987, Final residual = 8.77366e-11, No Iterations 2
Phase-1 volume fraction = 5.57702e-07  Min(alpha.water) = -4.42493e-85  Max(alpha.water) = 1
MULES: Correcting alpha.water
MULES: Correcting alpha.water
Phase-1 volume fraction = 5.57702e-07  Min(alpha.water) = -4.44447e-11  Max(alpha.water) = 1
smoothSolver:  Solving for Ux, Initial residual = 0.00306195, Final residual = 7.86317e-07, No Iterations 8
smoothSolver:  Solving for Uy, Initial residual = 0.0169069, Final residual = 8.62986e-07, No Iterations 9
smoothSolver:  Solving for Uz, Initial residual = 0.00524408, Final residual = 9.44144e-07, No Iterations 4
DICPCG:  Solving for p_rgh, Initial residual = 0.186124, Final residual = 0.00703773, No Iterations 3
time step continuity errors : sum local = 4.16708e-07, global = 1.35632e-08, cumulative = 1.30502e-07
DICPCG:  Solving for p_rgh, Initial residual = 0.0373184, Final residual = 0.00176045, No Iterations 161
time step continuity errors : sum local = 1.03544e-07, global = 1.42147e-08, cumulative = 1.44717e-07
DICPCG:  Solving for p_rgh, Initial residual = 0.0324301, Final residual = 9.2963e-08, No Iterations 874
time step continuity errors : sum local = 5.54961e-12, global = 5.72267e-16, cumulative = 1.44717e-07
smoothSolver:  Solving for omega, Initial residual = 0.00108833, Final residual = 2.7441e-06, No Iterations 2
bounding omega, min: -175.914 max: 4146.78 average: 43.5581
smoothSolver:  Solving for k, Initial residual = 0.109811, Final residual = 9.17144e-06, No Iterations 14
bounding k, min: -0.0113349 max: 0.293929 average: 3.25199e-05
ExecutionTime = 19.84 s  ClockTime = 21 s

Courant Number mean: 0.00363827 max: 1.01168
Interface Courant Number mean: 2.63551e-07 max: 0.0422561
deltaT = 0.000168248
Time = 0.000914594

PIMPLE: iteration 1
smoothSolver:  Solving for alpha.water, Initial residual = 0.0296316, Final residual = 8.83683e-11, No Iterations 2
Phase-1 volume fraction = 6.83424e-07  Min(alpha.water) = -1.54035e-92  Max(alpha.water) = 1
MULES: Correcting alpha.water
MULES: Correcting alpha.water
Phase-1 volume fraction = 6.83424e-07  Min(alpha.water) = -9.84018e-11  Max(alpha.water) = 1
smoothSolver:  Solving for Ux, Initial residual = 0.00255269, Final residual = 3.96308e-07, No Iterations 3
smoothSolver:  Solving for Uy, Initial residual = 0.0150441, Final residual = 8.87039e-07, No Iterations 5
smoothSolver:  Solving for Uz, Initial residual = 0.00457022, Final residual = 6.71582e-07, No Iterations 3
DICPCG:  Solving for p_rgh, Initial residual = 0.114854, Final residual = 0.00477154, No Iterations 3
time step continuity errors : sum local = 2.22972e-07, global = -3.8452e-09, cumulative = 1.40872e-07
DICPCG:  Solving for p_rgh, Initial residual = 0.026845, Final residual = 0.00125048, No Iterations 10
time step continuity errors : sum local = 5.70458e-08, global = -4.64611e-09, cumulative = 1.36226e-07
DICPCG:  Solving for p_rgh, Initial residual = 0.00825673, Final residual = 9.98592e-08, No Iterations 892
time step continuity errors : sum local = 4.55892e-12, global = -1.69469e-15, cumulative = 1.36226e-07
smoothSolver:  Solving for omega, Initial residual = 0.00102792, Final residual = 6.83938e-06, No Iterations 2
bounding omega, min: -31.8831 max: 4146.77 average: 43.7063
smoothSolver:  Solving for k, Initial residual = 0.082134, Final residual = 9.4546e-06, No Iterations 23
bounding k, min: -0.0108869 max: 0.360389 average: 3.73936e-05
ExecutionTime = 22.56 s  ClockTime = 24 s

Courant Number mean: 0.00357274 max: 0.997657
Interface Courant Number mean: 2.52961e-07 max: 0.0403198
deltaT = 0.000168248
Time = 0.00108284

PIMPLE: iteration 1
smoothSolver:  Solving for alpha.water, Initial residual = 0.0243174, Final residual = 7.83054e-11, No Iterations 2
Phase-1 volume fraction = 8.09146e-07  Min(alpha.water) = -1.12549e-90  Max(alpha.water) = 1
MULES: Correcting alpha.water
MULES: Correcting alpha.water
Phase-1 volume fraction = 8.09146e-07  Min(alpha.water) = -9.65025e-15  Max(alpha.water) = 1
smoothSolver:  Solving for Ux, Initial residual = 0.00237059, Final residual = 4.6875e-07, No Iterations 3
smoothSolver:  Solving for Uy, Initial residual = 0.0136081, Final residual = 7.30822e-07, No Iterations 6
smoothSolver:  Solving for Uz, Initial residual = 0.00431412, Final residual = 7.34796e-07, No Iterations 4
DICPCG:  Solving for p_rgh, Initial residual = 0.0582579, Final residual = 0.00246057, No Iterations 3
time step continuity errors : sum local = 1.22288e-07, global = 8.9486e-10, cumulative = 1.37121e-07
DICPCG:  Solving for p_rgh, Initial residual = 0.0147104, Final residual = 0.000671826, No Iterations 8
time step continuity errors : sum local = 3.37808e-08, global = 1.17519e-09, cumulative = 1.38296e-07
DICPCG:  Solving for p_rgh, Initial residual = 0.0041615, Final residual = 9.72674e-08, No Iterations 867
time step continuity errors : sum local = 4.89651e-12, global = 3.45515e-16, cumulative = 1.38296e-07
smoothSolver:  Solving for omega, Initial residual = 0.00103107, Final residual = 1.81943e-06, No Iterations 2
bounding omega, min: -128.447 max: 4146.77 average: 43.8453
smoothSolver:  Solving for k, Initial residual = 0.0682916, Final residual = 9.99196e-06, No Iterations 852
bounding k, min: -0.00888985 max: 0.396196 average: 4.24899e-05
ExecutionTime = 26.5 s  ClockTime = 28 s

Courant Number mean: 0.00357347 max: 1.00109
Interface Courant Number mean: 2.40992e-07 max: 0.0374388
deltaT = 0.000168248
Time = 0.00125109

PIMPLE: iteration 1
smoothSolver:  Solving for alpha.water, Initial residual = 0.0206217, Final residual = 6.92254e-11, No Iterations 2
Phase-1 volume fraction = 9.34868e-07  Min(alpha.water) = -3.97112e-90  Max(alpha.water) = 1
MULES: Correcting alpha.water
MULES: Correcting alpha.water
Phase-1 volume fraction = 9.34868e-07  Min(alpha.water) = -3.86231e-10  Max(alpha.water) = 1
smoothSolver:  Solving for Ux, Initial residual = 0.00208787, Final residual = 4.8582e-07, No Iterations 2
smoothSolver:  Solving for Uy, Initial residual = 0.0124002, Final residual = 9.87072e-07, No Iterations 5
smoothSolver:  Solving for Uz, Initial residual = 0.00382088, Final residual = 4.89276e-07, No Iterations 3
DICPCG:  Solving for p_rgh, Initial residual = 0.0506572, Final residual = 0.00225297, No Iterations 3
time step continuity errors : sum local = 1.13304e-07, global = -2.7914e-10, cumulative = 1.38017e-07
DICPCG:  Solving for p_rgh, Initial residual = 0.0130211, Final residual = 0.000612188, No Iterations 8
time step continuity errors : sum local = 3.10702e-08, global = -3.18333e-10, cumulative = 1.37698e-07
DICPCG:  Solving for p_rgh, Initial residual = 0.00382484, Final residual = 9.79603e-08, No Iterations 883
time step continuity errors : sum local = 4.97578e-12, global = 8.86291e-16, cumulative = 1.37698e-07
smoothSolver:  Solving for omega, Initial residual = 0.000943696, Final residual = 2.02451e-06, No Iterations 2
bounding omega, min: -57.7571 max: 4146.77 average: 43.9839
smoothSolver:  Solving for k, Initial residual = 0.0597106, Final residual = 3.24855e-06, No Iterations 4
bounding k, min: -0.0156173 max: 0.41498 average: 4.80458e-05
ExecutionTime = 28.98 s  ClockTime = 31 s

Courant Number mean: 0.00357414 max: 1.00335
Interface Courant Number mean: 2.29806e-07 max: 0.0335254
deltaT = 0.000168248
Time = 0.00141934

PIMPLE: iteration 1
smoothSolver:  Solving for alpha.water, Initial residual = 0.0179015, Final residual = 6.45137e-11, No Iterations 2
Phase-1 volume fraction = 1.06059e-06  Min(alpha.water) = -2.83472e-91  Max(alpha.water) = 1
MULES: Correcting alpha.water
MULES: Correcting alpha.water
Phase-1 volume fraction = 1.06059e-06  Min(alpha.water) = -4.81116e-10  Max(alpha.water) = 1
smoothSolver:  Solving for Ux, Initial residual = 0.001907, Final residual = 2.56142e-07, No Iterations 2
smoothSolver:  Solving for Uy, Initial residual = 0.0116097, Final residual = 4.14254e-07, No Iterations 3
smoothSolver:  Solving for Uz, Initial residual = 0.0035397, Final residual = 5.96019e-07, No Iterations 2
DICPCG:  Solving for p_rgh, Initial residual = 0.0439891, Final residual = 0.00177446, No Iterations 3
time step continuity errors : sum local = 9.16353e-08, global = 1.72002e-10, cumulative = 1.3787e-07
DICPCG:  Solving for p_rgh, Initial residual = 0.0112553, Final residual = 0.00053421, No Iterations 5
time step continuity errors : sum local = 2.78334e-08, global = 1.44714e-10, cumulative = 1.38015e-07
DICPCG:  Solving for p_rgh, Initial residual = 0.00290198, Final residual = 9.6521e-08, No Iterations 876
time step continuity errors : sum local = 5.03267e-12, global = -1.16579e-15, cumulative = 1.38015e-07
smoothSolver:  Solving for omega, Initial residual = 0.000886285, Final residual = 1.78325e-06, No Iterations 2
bounding omega, min: -145.888 max: 4146.76 average: 44.1179
smoothSolver:  Solving for k, Initial residual = 0.0524421, Final residual = 1.01749e-06, No Iterations 4
bounding k, min: -0.0199575 max: 0.430463 average: 5.40275e-05
ExecutionTime = 31.33 s  ClockTime = 33 s

Courant Number mean: 0.00357481 max: 1.00488
Interface Courant Number mean: 2.204e-07 max: 0.0316703
deltaT = 0.000168248
Time = 0.00158759

PIMPLE: iteration 1
smoothSolver:  Solving for alpha.water, Initial residual = 0.0158155, Final residual = 6.01043e-11, No Iterations 2
Phase-1 volume fraction = 1.18631e-06  Min(alpha.water) = -1.14971e-90  Max(alpha.water) = 1
MULES: Correcting alpha.water
MULES: Correcting alpha.water
Phase-1 volume fraction = 1.18631e-06  Min(alpha.water) = -6.6888e-10  Max(alpha.water) = 1
smoothSolver:  Solving for Ux, Initial residual = 0.00176688, Final residual = 5.20942e-07, No Iterations 2
smoothSolver:  Solving for Uy, Initial residual = 0.0110004, Final residual = 8.96955e-07, No Iterations 6
smoothSolver:  Solving for Uz, Initial residual = 0.00338338, Final residual = 7.1799e-07, No Iterations 4
DICPCG:  Solving for p_rgh, Initial residual = 0.038601, Final residual = 0.00191174, No Iterations 3
time step continuity errors : sum local = 1.00262e-07, global = 1.39822e-10, cumulative = 1.38155e-07
DICPCG:  Solving for p_rgh, Initial residual = 0.0106236, Final residual = 0.000509683, No Iterations 7
time step continuity errors : sum local = 2.69587e-08, global = 7.63441e-11, cumulative = 1.38231e-07
DICPCG:  Solving for p_rgh, Initial residual = 0.00317461, Final residual = 9.86218e-08, No Iterations 872
time step continuity errors : sum local = 5.21903e-12, global = -5.35121e-16, cumulative = 1.38231e-07
smoothSolver:  Solving for omega, Initial residual = 0.000851369, Final residual = 1.87109e-06, No Iterations 2
bounding omega, min: -22.0979 max: 4146.76 average: 44.2465
smoothSolver:  Solving for k, Initial residual = 0.0470962, Final residual = 6.18565e-06, No Iterations 5
bounding k, min: -0.00610562 max: 0.440447 average: 6.03501e-05
ExecutionTime = 34 s  ClockTime = 36 s

Courant Number mean: 0.00357541 max: 1.00581
Interface Courant Number mean: 2.11707e-07 max: 0.0306154
deltaT = 0.000168248
Time = 0.00175584

PIMPLE: iteration 1
smoothSolver:  Solving for alpha.water, Initial residual = 0.0141651, Final residual = 5.53955e-11, No Iterations 2
Phase-1 volume fraction = 1.31204e-06  Min(alpha.water) = -3.63345e-90  Max(alpha.water) = 1
MULES: Correcting alpha.water
MULES: Correcting alpha.water
Phase-1 volume fraction = 1.31204e-06  Min(alpha.water) = -8.75949e-10  Max(alpha.water) = 1
smoothSolver:  Solving for Ux, Initial residual = 0.00161829, Final residual = 1.5531e-07, No Iterations 2
smoothSolver:  Solving for Uy, Initial residual = 0.0103043, Final residual = 1.55187e-07, No Iterations 3
smoothSolver:  Solving for Uz, Initial residual = 0.00313424, Final residual = 5.58969e-07, No Iterations 2
DICPCG:  Solving for p_rgh, Initial residual = 0.0344488, Final residual = 0.00160391, No Iterations 3
time step continuity errors : sum local = 8.54885e-08, global = 1.87756e-10, cumulative = 1.38419e-07
DICPCG:  Solving for p_rgh, Initial residual = 0.00929304, Final residual = 0.00045573, No Iterations 6
time step continuity errors : sum local = 2.44581e-08, global = 1.6688e-10, cumulative = 1.38586e-07
DICPCG:  Solving for p_rgh, Initial residual = 0.00273885, Final residual = 9.75183e-08, No Iterations 869
time step continuity errors : sum local = 5.23515e-12, global = -1.2848e-16, cumulative = 1.38586e-07
smoothSolver:  Solving for omega, Initial residual = 0.000832035, Final residual = 1.60032e-06, No Iterations 2
bounding omega, min: -32.5459 max: 4146.75 average: 44.3688
smoothSolver:  Solving for k, Initial residual = 0.0416072, Final residual = 9.76343e-06, No Iterations 3
bounding k, min: -0.015449 max: 0.447038 average: 6.67285e-05
ExecutionTime = 36.49 s  ClockTime = 38 s

Courant Number mean: 0.00357602 max: 1.00634
Interface Courant Number mean: 2.04107e-07 max: 0.0290787
deltaT = 0.000168248
Time = 0.00192408

PIMPLE: iteration 1
smoothSolver:  Solving for alpha.water, Initial residual = 0.0128267, Final residual = 5.02774e-11, No Iterations 2
Phase-1 volume fraction = 1.43776e-06  Min(alpha.water) = -9.69598e-90  Max(alpha.water) = 1
MULES: Correcting alpha.water
MULES: Correcting alpha.water
Phase-1 volume fraction = 1.43776e-06  Min(alpha.water) = -1.0521e-09  Max(alpha.water) = 1
smoothSolver:  Solving for Ux, Initial residual = 0.00150738, Final residual = 3.8608e-07, No Iterations 2
smoothSolver:  Solving for Uy, Initial residual = 0.00968411, Final residual = 9.36756e-07, No Iterations 3
smoothSolver:  Solving for Uz, Initial residual = 0.00298218, Final residual = 8.82609e-07, No Iterations 3
DICPCG:  Solving for p_rgh, Initial residual = 0.0290051, Final residual = 0.000954313, No Iterations 3
time step continuity errors : sum local = 5.13884e-08, global = 3.21851e-10, cumulative = 1.38908e-07
DICPCG:  Solving for p_rgh, Initial residual = 0.00706881, Final residual = 0.000323389, No Iterations 5
time step continuity errors : sum local = 1.75416e-08, global = 1.37649e-10, cumulative = 1.39045e-07
DICPCG:  Solving for p_rgh, Initial residual = 0.00180496, Final residual = 9.5179e-08, No Iterations 868
time step continuity errors : sum local = 5.16382e-12, global = 8.21636e-16, cumulative = 1.39045e-07
smoothSolver:  Solving for omega, Initial residual = 0.000834513, Final residual = 2.5311e-06, No Iterations 2
bounding omega, min: -88.121 max: 4146.75 average: 44.4891
smoothSolver:  Solving for k, Initial residual = 0.0378872, Final residual = 1.23541e-06, No Iterations 4
bounding k, min: -0.014539 max: 0.477369 average: 7.35817e-05
ExecutionTime = 38.9 s  ClockTime = 41 s

Courant Number mean: 0.00357661 max: 1.00636
Interface Courant Number mean: 1.98344e-07 max: 0.0273805
deltaT = 0.000168248
Time = 0.00209233

PIMPLE: iteration 1
smoothSolver:  Solving for alpha.water, Initial residual = 0.0117192, Final residual = 4.38402e-11, No Iterations 2
Phase-1 volume fraction = 1.56348e-06  Min(alpha.water) = -2.28896e-89  Max(alpha.water) = 1
MULES: Correcting alpha.water
MULES: Correcting alpha.water
Phase-1 volume fraction = 1.56348e-06  Min(alpha.water) = -2.16353e-09  Max(alpha.water) = 1
smoothSolver:  Solving for Ux, Initial residual = 0.00140728, Final residual = 2.83057e-07, No Iterations 2
smoothSolver:  Solving for Uy, Initial residual = 0.00923065, Final residual = 6.40549e-07, No Iterations 3
smoothSolver:  Solving for Uz, Initial residual = 0.0028177, Final residual = 3.12381e-07, No Iterations 3
DICPCG:  Solving for p_rgh, Initial residual = 0.0271482, Final residual = 0.000979775, No Iterations 3
time step continuity errors : sum local = 5.33732e-08, global = 3.96241e-10, cumulative = 1.39442e-07
DICPCG:  Solving for p_rgh, Initial residual = 0.00684942, Final residual = 0.000275542, No Iterations 5
time step continuity errors : sum local = 1.51139e-08, global = 2.37065e-10, cumulative = 1.39679e-07
DICPCG:  Solving for p_rgh, Initial residual = 0.0017205, Final residual = 9.51726e-08, No Iterations 864
time step continuity errors : sum local = 5.22042e-12, global = 6.5135e-17, cumulative = 1.39679e-07
smoothSolver:  Solving for omega, Initial residual = 0.000867397, Final residual = 2.06042e-06, No Iterations 2
bounding omega, min: -41.7556 max: 4146.74 average: 44.6087
smoothSolver:  Solving for k, Initial residual = 0.0347836, Final residual = 2.12114e-06, No Iterations 4
bounding k, min: -0.00339401 max: 0.502825 average: 8.06195e-05
ExecutionTime = 41.37 s  ClockTime = 43 s

Courant Number mean: 0.00357715 max: 1.00598
Interface Courant Number mean: 1.93116e-07 max: 0.0251151
deltaT = 0.000168248
Time = 0.00226058

PIMPLE: iteration 1
smoothSolver:  Solving for alpha.water, Initial residual = 0.0107877, Final residual = 3.55505e-11, No Iterations 2
Phase-1 volume fraction = 1.6892e-06  Min(alpha.water) = -4.92176e-89  Max(alpha.water) = 1
MULES: Correcting alpha.water
MULES: Correcting alpha.water
Phase-1 volume fraction = 1.6892e-06  Min(alpha.water) = -4.01742e-09  Max(alpha.water) = 1
smoothSolver:  Solving for Ux, Initial residual = 0.00131293, Final residual = 1.62635e-07, No Iterations 2
smoothSolver:  Solving for Uy, Initial residual = 0.00873735, Final residual = 8.56596e-07, No Iterations 2
smoothSolver:  Solving for Uz, Initial residual = 0.00266889, Final residual = 3.69065e-07, No Iterations 2
DICPCG:  Solving for p_rgh, Initial residual = 0.0251143, Final residual = 0.000998163, No Iterations 3
time step continuity errors : sum local = 5.47187e-08, global = 3.69064e-10, cumulative = 1.40048e-07
DICPCG:  Solving for p_rgh, Initial residual = 0.00638878, Final residual = 0.000317698, No Iterations 5
time step continuity errors : sum local = 1.75072e-08, global = 1.66029e-10, cumulative = 1.40214e-07
DICPCG:  Solving for p_rgh, Initial residual = 0.00168499, Final residual = 9.99094e-08, No Iterations 855
time step continuity errors : sum local = 5.50486e-12, global = 2.21378e-15, cumulative = 1.40214e-07
smoothSolver:  Solving for omega, Initial residual = 0.000745904, Final residual = 1.18911e-06, No Iterations 2
bounding omega, min: -47.6868 max: 4146.74 average: 44.7219
smoothSolver:  Solving for k, Initial residual = 0.0321111, Final residual = 8.53298e-06, No Iterations 3
bounding k, min: -0.0147011 max: 0.524441 average: 8.77651e-05
ExecutionTime = 43.79 s  ClockTime = 45 s

Courant Number mean: 0.00357766 max: 1.00538
Interface Courant Number mean: 1.86703e-07 max: 0.0184589
deltaT = 0.000168248
Time = 0.00242883

PIMPLE: iteration 1
smoothSolver:  Solving for alpha.water, Initial residual = 0.00999374, Final residual = 2.56489e-11, No Iterations 2
Phase-1 volume fraction = 1.81492e-06  Min(alpha.water) = -9.82638e-89  Max(alpha.water) = 1
MULES: Correcting alpha.water
MULES: Correcting alpha.water
Phase-1 volume fraction = 1.81492e-06  Min(alpha.water) = -6.3465e-09  Max(alpha.water) = 1
smoothSolver:  Solving for Ux, Initial residual = 0.00123055, Final residual = 1.71743e-07, No Iterations 2
smoothSolver:  Solving for Uy, Initial residual = 0.00830414, Final residual = 2.65971e-07, No Iterations 3
smoothSolver:  Solving for Uz, Initial residual = 0.00254822, Final residual = 7.97505e-07, No Iterations 2
DICPCG:  Solving for p_rgh, Initial residual = 0.0224293, Final residual = 0.000800986, No Iterations 3
time step continuity errors : sum local = 4.4259e-08, global = 3.87278e-10, cumulative = 1.40601e-07
DICPCG:  Solving for p_rgh, Initial residual = 0.00563602, Final residual = 0.000271273, No Iterations 4
time step continuity errors : sum local = 1.50698e-08, global = 2.51889e-10, cumulative = 1.40853e-07
DICPCG:  Solving for p_rgh, Initial residual = 0.00138111, Final residual = 9.66951e-08, No Iterations 858
time step continuity errors : sum local = 5.37046e-12, global = -8.70765e-16, cumulative = 1.40853e-07
smoothSolver:  Solving for omega, Initial residual = 0.000736618, Final residual = 1.37042e-06, No Iterations 2
bounding omega, min: -23.9818 max: 4146.74 average: 44.8318
smoothSolver:  Solving for k, Initial residual = 0.0297683, Final residual = 9.92142e-06, No Iterations 3
bounding k, min: -0.0132785 max: 0.542853 average: 9.53724e-05
ExecutionTime = 46.2 s  ClockTime = 48 s

Courant Number mean: 0.0035781 max: 1.00466
Interface Courant Number mean: 1.83243e-07 max: 0.0177979
deltaT = 0.000168248
Time = 0.00259708

PIMPLE: iteration 1
smoothSolver:  Solving for alpha.water, Initial residual = 0.00930824, Final residual = 2.43408e-11, No Iterations 2
Phase-1 volume fraction = 1.94065e-06  Min(alpha.water) = -1.84668e-88  Max(alpha.water) = 1
MULES: Correcting alpha.water
MULES: Correcting alpha.water
Phase-1 volume fraction = 1.94065e-06  Min(alpha.water) = -4.48157e-09  Max(alpha.water) = 1
smoothSolver:  Solving for Ux, Initial residual = 0.00116849, Final residual = 3.22729e-07, No Iterations 2
smoothSolver:  Solving for Uy, Initial residual = 0.0079843, Final residual = 9.24654e-07, No Iterations 3
smoothSolver:  Solving for Uz, Initial residual = 0.00245345, Final residual = 6.26577e-07, No Iterations 3
DICPCG:  Solving for p_rgh, Initial residual = 0.0213528, Final residual = 0.000786688, No Iterations 3
time step continuity errors : sum local = 4.36736e-08, global = 1.68774e-09, cumulative = 1.42541e-07
DICPCG:  Solving for p_rgh, Initial residual = 0.00551561, Final residual = 0.000239626, No Iterations 5
time step continuity errors : sum local = 1.33724e-08, global = 6.755e-10, cumulative = 1.43216e-07
DICPCG:  Solving for p_rgh, Initial residual = 0.00142596, Final residual = 9.30707e-08, No Iterations 869
time step continuity errors : sum local = 5.19216e-12, global = -2.74733e-15, cumulative = 1.43216e-07
smoothSolver:  Solving for omega, Initial residual = 0.000724386, Final residual = 1.32694e-06, No Iterations 2
bounding omega, min: -32.5811 max: 4146.74 average: 44.939
smoothSolver:  Solving for k, Initial residual = 0.0280734, Final residual = 7.69759e-06, No Iterations 8
bounding k, min: -0.017853 max: 0.558556 average: 0.000103029
ExecutionTime = 48.7 s  ClockTime = 50 s

Courant Number mean: 0.00357852 max: 1.0039
Interface Courant Number mean: 1.80256e-07 max: 0.0182021
deltaT = 0.000168248
Time = 0.00276533

PIMPLE: iteration 1
smoothSolver:  Solving for alpha.water, Initial residual = 0.00871068, Final residual = 2.33439e-11, No Iterations 2
Phase-1 volume fraction = 2.06637e-06  Min(alpha.water) = -3.30471e-88  Max(alpha.water) = 1
MULES: Correcting alpha.water
MULES: Correcting alpha.water
Phase-1 volume fraction = 2.06637e-06  Min(alpha.water) = -6.78824e-09  Max(alpha.water) = 1
smoothSolver:  Solving for Ux, Initial residual = 0.00133272, Final residual = 9.98648e-07, No Iterations 38
smoothSolver:  Solving for Uy, Initial residual = 0.00883616, Final residual = 9.85915e-07, No Iterations 32
smoothSolver:  Solving for Uz, Initial residual = 0.00267263, Final residual = 9.71477e-07, No Iterations 21
DICPCG:  Solving for p_rgh, Initial residual = 0.0208776, Final residual = 0.000927373, No Iterations 3
time step continuity errors : sum local = 5.17468e-08, global = -1.55805e-09, cumulative = 1.41658e-07
DICPCG:  Solving for p_rgh, Initial residual = 0.006325, Final residual = 0.00030553, No Iterations 4
time step continuity errors : sum local = 1.7121e-08, global = -8.52157e-10, cumulative = 1.40806e-07
DICPCG:  Solving for p_rgh, Initial residual = 0.00166215, Final residual = 9.80535e-08, No Iterations 874
time step continuity errors : sum local = 5.49516e-12, global = 9.80449e-17, cumulative = 1.40806e-07
smoothSolver:  Solving for omega, Initial residual = 0.000743702, Final residual = 2.05586e-06, No Iterations 2
bounding omega, min: -33.1925 max: 4146.73 average: 45.0459
smoothSolver:  Solving for k, Initial residual = 0.0286505, Final residual = 9.6361e-06, No Iterations 102
bounding k, min: -0.0135013 max: 0.572095 average: 0.000111934
ExecutionTime = 51.54 s  ClockTime = 53 s

Courant Number mean: 0.00357889 max: 1.00315
Interface Courant Number mean: 1.77578e-07 max: 0.0182908
deltaT = 0.000168248
Time = 0.00293357

PIMPLE: iteration 1
smoothSolver:  Solving for alpha.water, Initial residual = 0.00818519, Final residual = 2.22346e-11, No Iterations 2
Phase-1 volume fraction = 2.19209e-06  Min(alpha.water) = -5.68453e-88  Max(alpha.water) = 1
MULES: Correcting alpha.water
MULES: Correcting alpha.water
Phase-1 volume fraction = 2.19209e-06  Min(alpha.water) = -9.72611e-09  Max(alpha.water) = 1
smoothSolver:  Solving for Ux, Initial residual = 0.00105251, Final residual = 3.8576e-07, No Iterations 2
smoothSolver:  Solving for Uy, Initial residual = 0.00740592, Final residual = 5.65626e-07, No Iterations 4
smoothSolver:  Solving for Uz, Initial residual = 0.0022761, Final residual = 7.61911e-07, No Iterations 2
DICPCG:  Solving for p_rgh, Initial residual = 0.0197927, Final residual = 0.000788879, No Iterations 3
time step continuity errors : sum local = 4.42115e-08, global = 3.04009e-10, cumulative = 1.4111e-07
DICPCG:  Solving for p_rgh, Initial residual = 0.00587623, Final residual = 0.000248404, No Iterations 4
time step continuity errors : sum local = 1.39626e-08, global = 2.54816e-10, cumulative = 1.41365e-07
DICPCG:  Solving for p_rgh, Initial residual = 0.00143314, Final residual = 9.87971e-08, No Iterations 869
time step continuity errors : sum local = 5.54726e-12, global = -6.74577e-16, cumulative = 1.41365e-07
smoothSolver:  Solving for omega, Initial residual = 0.00069167, Final residual = 1.2418e-06, No Iterations 2
bounding omega, min: -38.0849 max: 4146.73 average: 45.1513
smoothSolver:  Solving for k, Initial residual = 0.0258015, Final residual = 6.35185e-06, No Iterations 4
bounding k, min: -0.0123531 max: 0.583721 average: 0.000120338
ExecutionTime = 54.29 s  ClockTime = 56 s

Courant Number mean: 0.0035792 max: 1.00243
Interface Courant Number mean: 1.75372e-07 max: 0.0181468
deltaT = 0.000168248
Time = 0.00310182

PIMPLE: iteration 1
smoothSolver:  Solving for alpha.water, Initial residual = 0.00771946, Final residual = 2.10329e-11, No Iterations 2
Phase-1 volume fraction = 2.31781e-06  Min(alpha.water) = -9.47206e-88  Max(alpha.water) = 1
MULES: Correcting alpha.water
MULES: Correcting alpha.water
Phase-1 volume fraction = 2.31781e-06  Min(alpha.water) = -1.24789e-08  Max(alpha.water) = 1
smoothSolver:  Solving for Ux, Initial residual = 0.000996892, Final residual = 4.72046e-07, No Iterations 2
smoothSolver:  Solving for Uy, Initial residual = 0.00704805, Final residual = 3.44279e-07, No Iterations 3
smoothSolver:  Solving for Uz, Initial residual = 0.00217659, Final residual = 5.25122e-07, No Iterations 3
DICPCG:  Solving for p_rgh, Initial residual = 0.0175538, Final residual = 0.000593449, No Iterations 3
time step continuity errors : sum local = 3.32815e-08, global = 1.57278e-10, cumulative = 1.41522e-07
DICPCG:  Solving for p_rgh, Initial residual = 0.00446378, Final residual = 0.00020362, No Iterations 4
time step continuity errors : sum local = 1.1458e-08, global = 8.1931e-11, cumulative = 1.41604e-07
DICPCG:  Solving for p_rgh, Initial residual = 0.00109816, Final residual = 9.9597e-08, No Iterations 860
time step continuity errors : sum local = 5.60175e-12, global = 1.93705e-15, cumulative = 1.41604e-07
smoothSolver:  Solving for omega, Initial residual = 0.000669133, Final residual = 1.05657e-06, No Iterations 2
bounding omega, min: -29.0666 max: 4146.73 average: 45.2534
smoothSolver:  Solving for k, Initial residual = 0.0236514, Final residual = 9.21144e-06, No Iterations 5
bounding k, min: -0.0141384 max: 0.593566 average: 0.000128692
ExecutionTime = 56.82 s  ClockTime = 59 s

Courant Number mean: 0.00357949 max: 1.00176
Interface Courant Number mean: 1.73706e-07 max: 0.0178494
deltaT = 0.000168248
Time = 0.00327007

PIMPLE: iteration 1
smoothSolver:  Solving for alpha.water, Initial residual = 0.00730395, Final residual = 1.98642e-11, No Iterations 2
Phase-1 volume fraction = 2.44354e-06  Min(alpha.water) = -1.53667e-87  Max(alpha.water) = 1
MULES: Correcting alpha.water
MULES: Correcting alpha.water
Phase-1 volume fraction = 2.44354e-06  Min(alpha.water) = -1.52861e-08  Max(alpha.water) = 1
smoothSolver:  Solving for Ux, Initial residual = 0.000948142, Final residual = 1.75637e-07, No Iterations 2
smoothSolver:  Solving for Uy, Initial residual = 0.00673913, Final residual = 4.13191e-07, No Iterations 3
smoothSolver:  Solving for Uz, Initial residual = 0.00207508, Final residual = 2.7078e-07, No Iterations 3
DICPCG:  Solving for p_rgh, Initial residual = 0.0163109, Final residual = 0.000570752, No Iterations 3
time step continuity errors : sum local = 3.20601e-08, global = 2.17393e-10, cumulative = 1.41821e-07
DICPCG:  Solving for p_rgh, Initial residual = 0.00423369, Final residual = 0.000193225, No Iterations 4
time step continuity errors : sum local = 1.08833e-08, global = 1.19376e-10, cumulative = 1.41941e-07
DICPCG:  Solving for p_rgh, Initial residual = 0.00105227, Final residual = 9.91095e-08, No Iterations 849
time step continuity errors : sum local = 5.57903e-12, global = 2.94262e-15, cumulative = 1.41941e-07
smoothSolver:  Solving for omega, Initial residual = 0.000652222, Final residual = 9.48564e-07, No Iterations 2
bounding omega, min: -30.756 max: 4146.72 average: 45.352
smoothSolver:  Solving for k, Initial residual = 0.0221308, Final residual = 6.85699e-06, No Iterations 3
bounding k, min: -0.0196506 max: 0.601958 average: 0.0001372
ExecutionTime = 59.27 s  ClockTime = 61 s

Courant Number mean: 0.00357975 max: 1.00108
Interface Courant Number mean: 1.72783e-07 max: 0.0174644
deltaT = 0.000168248
Time = 0.00343832

PIMPLE: iteration 1
smoothSolver:  Solving for alpha.water, Initial residual = 0.00693077, Final residual = 1.94742e-11, No Iterations 2
Phase-1 volume fraction = 2.56926e-06  Min(alpha.water) = -2.43444e-87  Max(alpha.water) = 1
MULES: Correcting alpha.water
MULES: Correcting alpha.water
Phase-1 volume fraction = 2.56926e-06  Min(alpha.water) = -1.83211e-08  Max(alpha.water) = 1
smoothSolver:  Solving for Ux, Initial residual = 0.000909596, Final residual = 1.22353e-07, No Iterations 2
smoothSolver:  Solving for Uy, Initial residual = 0.00649828, Final residual = 1.63617e-07, No Iterations 3
smoothSolver:  Solving for Uz, Initial residual = 0.0020017, Final residual = 3.42152e-07, No Iterations 2
DICPCG:  Solving for p_rgh, Initial residual = 0.0160863, Final residual = 0.00053578, No Iterations 3
time step continuity errors : sum local = 3.0288e-08, global = 1.90932e-10, cumulative = 1.42132e-07
DICPCG:  Solving for p_rgh, Initial residual = 0.00389635, Final residual = 0.000179292, No Iterations 4
time step continuity errors : sum local = 1.0169e-08, global = 7.28381e-11, cumulative = 1.42205e-07
DICPCG:  Solving for p_rgh, Initial residual = 0.000948603, Final residual = 9.76714e-08, No Iterations 846
time step continuity errors : sum local = 5.53649e-12, global = 7.25539e-16, cumulative = 1.42205e-07
smoothSolver:  Solving for omega, Initial residual = 0.000654241, Final residual = 1.32218e-06, No Iterations 2
bounding omega, min: -43.7301 max: 4146.72 average: 45.4508
smoothSolver:  Solving for k, Initial residual = 0.02105, Final residual = 6.72202e-06, No Iterations 3
bounding k, min: -0.0164651 max: 0.609011 average: 0.000146375
ExecutionTime = 62 s  ClockTime = 64 s

Courant Number mean: 0.00357995 max: 1.00042
Interface Courant Number mean: 1.72149e-07 max: 0.0171631
deltaT = 0.000168248
Time = 0.00360657

PIMPLE: iteration 1
smoothSolver:  Solving for alpha.water, Initial residual = 0.00659384, Final residual = 1.97848e-11, No Iterations 2
Phase-1 volume fraction = 2.69498e-06  Min(alpha.water) = -3.26236e-85  Max(alpha.water) = 1
MULES: Correcting alpha.water
MULES: Correcting alpha.water
Phase-1 volume fraction = 2.69498e-06  Min(alpha.water) = -2.1456e-08  Max(alpha.water) = 1
smoothSolver:  Solving for Ux, Initial residual = 0.000875764, Final residual = 1.96956e-07, No Iterations 2
smoothSolver:  Solving for Uy, Initial residual = 0.00629089, Final residual = 5.61274e-07, No Iterations 3
smoothSolver:  Solving for Uz, Initial residual = 0.00194766, Final residual = 9.39494e-07, No Iterations 2
DICPCG:  Solving for p_rgh, Initial residual = 0.0153963, Final residual = 0.000562441, No Iterations 3
time step continuity errors : sum local = 3.18664e-08, global = 1.35157e-10, cumulative = 1.4234e-07
DICPCG:  Solving for p_rgh, Initial residual = 0.0039985, Final residual = 0.00018941, No Iterations 4
time step continuity errors : sum local = 1.07604e-08, global = 1.00155e-10, cumulative = 1.4244e-07
DICPCG:  Solving for p_rgh, Initial residual = 0.00100275, Final residual = 9.78965e-08, No Iterations 849
time step continuity errors : sum local = 5.5577e-12, global = 3.0587e-15, cumulative = 1.4244e-07
smoothSolver:  Solving for omega, Initial residual = 0.000637496, Final residual = 9.845e-07, No Iterations 2
bounding omega, min: -23.0983 max: 4146.72 average: 45.5488
smoothSolver:  Solving for k, Initial residual = 0.0199852, Final residual = 7.40319e-06, No Iterations 3
bounding k, min: -0.0120903 max: 0.614708 average: 0.000155491
ExecutionTime = 64.73 s  ClockTime = 66 s

Courant Number mean: 0.00358013 max: 0.999923
Interface Courant Number mean: 1.71501e-07 max: 0.0172937
deltaT = 0.000168248
Time = 0.00377481

PIMPLE: iteration 1
smoothSolver:  Solving for alpha.water, Initial residual = 0.00628812, Final residual = 2.04665e-11, No Iterations 2
Phase-1 volume fraction = 2.8207e-06  Min(alpha.water) = -3.67936e-76  Max(alpha.water) = 1
MULES: Correcting alpha.water
MULES: Correcting alpha.water
Phase-1 volume fraction = 2.8207e-06  Min(alpha.water) = -2.47439e-08  Max(alpha.water) = 1
smoothSolver:  Solving for Ux, Initial residual = 0.000846836, Final residual = 1.55114e-07, No Iterations 2
smoothSolver:  Solving for Uy, Initial residual = 0.00608684, Final residual = 2.33381e-07, No Iterations 3
smoothSolver:  Solving for Uz, Initial residual = 0.00188098, Final residual = 4.83789e-07, No Iterations 2
DICPCG:  Solving for p_rgh, Initial residual = 0.0144971, Final residual = 0.00052836, No Iterations 3
time step continuity errors : sum local = 2.99988e-08, global = 1.92891e-10, cumulative = 1.42633e-07
DICPCG:  Solving for p_rgh, Initial residual = 0.00383866, Final residual = 0.000175569, No Iterations 4
time step continuity errors : sum local = 9.9967e-09, global = 1.11984e-10, cumulative = 1.42745e-07
DICPCG:  Solving for p_rgh, Initial residual = 0.000961451, Final residual = 9.84574e-08, No Iterations 850
time step continuity errors : sum local = 5.60283e-12, global = 4.48596e-15, cumulative = 1.42745e-07
smoothSolver:  Solving for omega, Initial residual = 0.000622618, Final residual = 9.13963e-07, No Iterations 2
bounding omega, min: -52.9349 max: 4146.72 average: 45.6459
smoothSolver:  Solving for k, Initial residual = 0.019135, Final residual = 7.76017e-06, No Iterations 3
bounding k, min: -0.0147256 max: 0.619302 average: 0.000164756
ExecutionTime = 67.21 s  ClockTime = 69 s

Courant Number mean: 0.00358029 max: 0.999511
Interface Courant Number mean: 1.70846e-07 max: 0.0174091
deltaT = 0.000168248
Time = 0.00394306

PIMPLE: iteration 1
smoothSolver:  Solving for alpha.water, Initial residual = 0.0060094, Final residual = 2.10425e-11, No Iterations 2
Phase-1 volume fraction = 2.94642e-06  Min(alpha.water) = -1.54488e-75  Max(alpha.water) = 1
MULES: Correcting alpha.water
MULES: Correcting alpha.water
Phase-1 volume fraction = 2.94642e-06  Min(alpha.water) = -2.82708e-08  Max(alpha.water) = 1
smoothSolver:  Solving for Ux, Initial residual = 0.000824546, Final residual = 2.54009e-07, No Iterations 2
smoothSolver:  Solving for Uy, Initial residual = 0.00593337, Final residual = 2.58244e-07, No Iterations 3
smoothSolver:  Solving for Uz, Initial residual = 0.00183589, Final residual = 5.35173e-07, No Iterations 2
DICPCG:  Solving for p_rgh, Initial residual = 0.0142693, Final residual = 0.000553934, No Iterations 3
time step continuity errors : sum local = 3.15199e-08, global = 4.40574e-10, cumulative = 1.43185e-07
DICPCG:  Solving for p_rgh, Initial residual = 0.00389891, Final residual = 0.000163753, No Iterations 5
time step continuity errors : sum local = 9.34216e-09, global = 1.72851e-10, cumulative = 1.43358e-07
DICPCG:  Solving for p_rgh, Initial residual = 0.00103455, Final residual = 9.74809e-08, No Iterations 848
time step continuity errors : sum local = 5.5565e-12, global = 1.28768e-15, cumulative = 1.43358e-07
smoothSolver:  Solving for omega, Initial residual = 0.00062094, Final residual = 9.7938e-07, No Iterations 2
bounding omega, min: -39.1537 max: 4146.72 average: 45.7423
smoothSolver:  Solving for k, Initial residual = 0.0182762, Final residual = 7.1412e-06, No Iterations 3
bounding k, min: -0.021217 max: 0.622835 average: 0.000174254
ExecutionTime = 70.02 s  ClockTime = 72 s

Courant Number mean: 0.00358042 max: 0.999243
Interface Courant Number mean: 1.70278e-07 max: 0.0180843
deltaT = 0.000168248
Time = 0.00411131

PIMPLE: iteration 1
smoothSolver:  Solving for alpha.water, Initial residual = 0.00575417, Final residual = 2.10351e-11, No Iterations 2
Phase-1 volume fraction = 3.07215e-06  Min(alpha.water) = -5.35418e-13  Max(alpha.water) = 1
MULES: Correcting alpha.water
MULES: Correcting alpha.water
Phase-1 volume fraction = 3.07215e-06  Min(alpha.water) = -3.18814e-08  Max(alpha.water) = 1
smoothSolver:  Solving for Ux, Initial residual = 0.00079379, Final residual = 1.33081e-07, No Iterations 2
smoothSolver:  Solving for Uy, Initial residual = 0.00568227, Final residual = 8.8898e-07, No Iterations 2
smoothSolver:  Solving for Uz, Initial residual = 0.00176929, Final residual = 3.42865e-07, No Iterations 2
DICPCG:  Solving for p_rgh, Initial residual = 0.0136116, Final residual = 0.000520804, No Iterations 3
time step continuity errors : sum local = 2.96853e-08, global = -5.0265e-10, cumulative = 1.42856e-07
DICPCG:  Solving for p_rgh, Initial residual = 0.00362701, Final residual = 0.00017324, No Iterations 4
time step continuity errors : sum local = 9.89595e-09, global = -2.41516e-10, cumulative = 1.42614e-07
DICPCG:  Solving for p_rgh, Initial residual = 0.000905751, Final residual = 9.22932e-08, No Iterations 849
time step continuity errors : sum local = 5.26787e-12, global = -7.60193e-16, cumulative = 1.42614e-07
smoothSolver:  Solving for omega, Initial residual = 0.000601702, Final residual = 8.28416e-07, No Iterations 2
bounding omega, min: -37.3318 max: 4146.71 average: 45.8379
smoothSolver:  Solving for k, Initial residual = 0.0174753, Final residual = 7.36182e-06, No Iterations 3
bounding k, min: -0.0102152 max: 0.625273 average: 0.000184001
ExecutionTime = 73.04 s  ClockTime = 75 s

Courant Number mean: 0.00358052 max: 0.999104
Interface Courant Number mean: 1.69762e-07 max: 0.0198958
deltaT = 0.000168248
Time = 0.00427956

PIMPLE: iteration 1
smoothSolver:  Solving for alpha.water, Initial residual = 0.00551991, Final residual = 2.06945e-11, No Iterations 2
Phase-1 volume fraction = 3.19787e-06  Min(alpha.water) = -5.33881e-13  Max(alpha.water) = 1
MULES: Correcting alpha.water
MULES: Correcting alpha.water
Phase-1 volume fraction = 3.19787e-06  Min(alpha.water) = -3.55695e-08  Max(alpha.water) = 1
smoothSolver:  Solving for Ux, Initial residual = 0.000770408, Final residual = 1.91289e-07, No Iterations 2
smoothSolver:  Solving for Uy, Initial residual = 0.00552565, Final residual = 5.5392e-07, No Iterations 3
smoothSolver:  Solving for Uz, Initial residual = 0.00172737, Final residual = 5.47667e-07, No Iterations 2
DICPCG:  Solving for p_rgh, Initial residual = 0.0122524, Final residual = 0.000417095, No Iterations 3
time step continuity errors : sum local = 2.38006e-08, global = 1.05987e-10, cumulative = 1.4272e-07
DICPCG:  Solving for p_rgh, Initial residual = 0.00318063, Final residual = 0.000157602, No Iterations 4
time step continuity errors : sum local = 9.01512e-09, global = 9.25318e-11, cumulative = 1.42813e-07
DICPCG:  Solving for p_rgh, Initial residual = 0.000782236, Final residual = 9.75373e-08, No Iterations 842
time step continuity errors : sum local = 5.57496e-12, global = -1.04671e-15, cumulative = 1.42813e-07
smoothSolver:  Solving for omega, Initial residual = 0.000626346, Final residual = 1.33573e-06, No Iterations 2
bounding omega, min: -34.1399 max: 4146.71 average: 45.9321
smoothSolver:  Solving for k, Initial residual = 0.0168106, Final residual = 8.12453e-06, No Iterations 3
bounding k, min: -0.0151278 max: 0.626855 average: 0.000193958
ExecutionTime = 76.02 s  ClockTime = 78 s

Courant Number mean: 0.00358061 max: 0.999109
Interface Courant Number mean: 1.6919e-07 max: 0.0215986
deltaT = 0.000168248
Time = 0.00444781

PIMPLE: iteration 1
smoothSolver:  Solving for alpha.water, Initial residual = 0.00530398, Final residual = 1.9552e-11, No Iterations 2
Phase-1 volume fraction = 3.32359e-06  Min(alpha.water) = -5.32197e-13  Max(alpha.water) = 1
MULES: Correcting alpha.water
MULES: Correcting alpha.water
Phase-1 volume fraction = 3.32359e-06  Min(alpha.water) = -3.93761e-08  Max(alpha.water) = 1
smoothSolver:  Solving for Ux, Initial residual = 0.000761904, Final residual = 7.97189e-07, No Iterations 2
smoothSolver:  Solving for Uy, Initial residual = 0.00549517, Final residual = 8.49473e-07, No Iterations 10
smoothSolver:  Solving for Uz, Initial residual = 0.00170028, Final residual = 6.41282e-07, No Iterations 3
DICPCG:  Solving for p_rgh, Initial residual = 0.0121127, Final residual = 0.000436388, No Iterations 3
time step continuity errors : sum local = 2.49683e-08, global = 9.73861e-11, cumulative = 1.4291e-07
DICPCG:  Solving for p_rgh, Initial residual = 0.00326276, Final residual = 0.000152516, No Iterations 4
time step continuity errors : sum local = 8.74711e-09, global = 3.92478e-11, cumulative = 1.42949e-07
DICPCG:  Solving for p_rgh, Initial residual = 0.000796559, Final residual = 9.32348e-08, No Iterations 825
time step continuity errors : sum local = 5.34279e-12, global = 1.05013e-15, cumulative = 1.42949e-07
smoothSolver:  Solving for omega, Initial residual = 0.000584992, Final residual = 9.95633e-07, No Iterations 2
bounding omega, min: -31.5535 max: 4146.71 average: 46.0253
smoothSolver:  Solving for k, Initial residual = 0.0163958, Final residual = 4.33511e-06, No Iterations 4
bounding k, min: -0.00592932 max: 0.640005 average: 0.000204268
ExecutionTime = 78.39 s  ClockTime = 80 s

Courant Number mean: 0.00358068 max: 0.999261
Interface Courant Number mean: 1.68782e-07 max: 0.0231196
deltaT = 0.000168248
Time = 0.00461606

PIMPLE: iteration 1
smoothSolver:  Solving for alpha.water, Initial residual = 0.00510429, Final residual = 1.86983e-11, No Iterations 2
Phase-1 volume fraction = 3.44931e-06  Min(alpha.water) = -5.30379e-13  Max(alpha.water) = 1
MULES: Correcting alpha.water
MULES: Correcting alpha.water
Phase-1 volume fraction = 3.44931e-06  Min(alpha.water) = -4.32624e-08  Max(alpha.water) = 1
smoothSolver:  Solving for Ux, Initial residual = 0.00073152, Final residual = 1.70205e-07, No Iterations 2
smoothSolver:  Solving for Uy, Initial residual = 0.00528152, Final residual = 2.41789e-07, No Iterations 3
smoothSolver:  Solving for Uz, Initial residual = 0.00164416, Final residual = 4.41503e-07, No Iterations 2
DICPCG:  Solving for p_rgh, Initial residual = 0.0117101, Final residual = 0.000417137, No Iterations 3
time step continuity errors : sum local = 2.39087e-08, global = 1.05706e-10, cumulative = 1.43055e-07
DICPCG:  Solving for p_rgh, Initial residual = 0.00316996, Final residual = 0.000152252, No Iterations 4
time step continuity errors : sum local = 8.74553e-09, global = 7.23208e-11, cumulative = 1.43127e-07
DICPCG:  Solving for p_rgh, Initial residual = 0.000779757, Final residual = 9.61347e-08, No Iterations 849
time step continuity errors : sum local = 5.51784e-12, global = 6.53179e-16, cumulative = 1.43127e-07
smoothSolver:  Solving for omega, Initial residual = 0.000577009, Final residual = 9.11267e-07, No Iterations 2
bounding omega, min: -74.9461 max: 4146.71 average: 46.1162
smoothSolver:  Solving for k, Initial residual = 0.0156639, Final residual = 9.54118e-06, No Iterations 3
bounding k, min: -0.0213399 max: 0.662327 average: 0.000214608
ExecutionTime = 80.87 s  ClockTime = 83 s

Courant Number mean: 0.00358073 max: 0.999573
Interface Courant Number mean: 1.68415e-07 max: 0.0241986
deltaT = 0.000168248
Time = 0.0047843

PIMPLE: iteration 1
smoothSolver:  Solving for alpha.water, Initial residual = 0.00491911, Final residual = 1.78556e-11, No Iterations 2
Phase-1 volume fraction = 3.57504e-06  Min(alpha.water) = -5.28447e-13  Max(alpha.water) = 1
MULES: Correcting alpha.water
MULES: Correcting alpha.water
Phase-1 volume fraction = 3.57504e-06  Min(alpha.water) = -4.70777e-08  Max(alpha.water) = 1
smoothSolver:  Solving for Ux, Initial residual = 0.000713215, Final residual = 1.73867e-07, No Iterations 2
smoothSolver:  Solving for Uy, Initial residual = 0.00512871, Final residual = 8.18749e-07, No Iterations 3
smoothSolver:  Solving for Uz, Initial residual = 0.00160232, Final residual = 4.77433e-07, No Iterations 2
DICPCG:  Solving for p_rgh, Initial residual = 0.0109759, Final residual = 0.000370327, No Iterations 3
time step continuity errors : sum local = 2.12597e-08, global = 2.11075e-11, cumulative = 1.43148e-07
DICPCG:  Solving for p_rgh, Initial residual = 0.00292431, Final residual = 0.000136342, No Iterations 4
time step continuity errors : sum local = 7.84617e-09, global = 1.62636e-11, cumulative = 1.43165e-07
DICPCG:  Solving for p_rgh, Initial residual = 0.000721095, Final residual = 9.6962e-08, No Iterations 838
time step continuity errors : sum local = 5.57553e-12, global = -2.19295e-16, cumulative = 1.43165e-07
smoothSolver:  Solving for omega, Initial residual = 0.000566302, Final residual = 8.07793e-07, No Iterations 2
bounding omega, min: -25.5406 max: 4146.71 average: 46.2062
smoothSolver:  Solving for k, Initial residual = 0.0151722, Final residual = 1.74465e-06, No Iterations 4
bounding k, min: -0.0191477 max: 0.682534 average: 0.000225484
ExecutionTime = 83.43 s  ClockTime = 85 s

Courant Number mean: 0.00358076 max: 1.00004
Interface Courant Number mean: 1.67958e-07 max: 0.0247709
deltaT = 0.000168248
Time = 0.00495255

PIMPLE: iteration 1
smoothSolver:  Solving for alpha.water, Initial residual = 0.0047469, Final residual = 1.7209e-11, No Iterations 2
Phase-1 volume fraction = 3.70076e-06  Min(alpha.water) = -3.26648e-74  Max(alpha.water) = 1
MULES: Correcting alpha.water
MULES: Correcting alpha.water
Phase-1 volume fraction = 3.70076e-06  Min(alpha.water) = -5.09149e-08  Max(alpha.water) = 1
smoothSolver:  Solving for Ux, Initial residual = 0.00070105, Final residual = 3.05654e-07, No Iterations 2
smoothSolver:  Solving for Uy, Initial residual = 0.0050426, Final residual = 9.04784e-07, No Iterations 3
smoothSolver:  Solving for Uz, Initial residual = 0.00157447, Final residual = 7.64456e-07, No Iterations 2
DICPCG:  Solving for p_rgh, Initial residual = 0.010975, Final residual = 0.000390547, No Iterations 3
time step continuity errors : sum local = 2.24566e-08, global = 1.7789e-11, cumulative = 1.43182e-07
DICPCG:  Solving for p_rgh, Initial residual = 0.00297806, Final residual = 0.000123844, No Iterations 5
time step continuity errors : sum local = 7.14047e-09, global = 1.54035e-11, cumulative = 1.43198e-07
DICPCG:  Solving for p_rgh, Initial residual = 0.000788922, Final residual = 9.80418e-08, No Iterations 851
time step continuity errors : sum local = 5.64834e-12, global = 2.79259e-15, cumulative = 1.43198e-07
smoothSolver:  Solving for omega, Initial residual = 0.00055837, Final residual = 7.69422e-07, No Iterations 2
bounding omega, min: -18.3763 max: 4146.7 average: 46.2949
smoothSolver:  Solving for k, Initial residual = 0.014699, Final residual = 1.74924e-06, No Iterations 4
bounding k, min: -0.0138654 max: 0.700487 average: 0.000236248
ExecutionTime = 86.16 s  ClockTime = 88 s

Courant Number mean: 0.00358079 max: 1.00066
Interface Courant Number mean: 1.67395e-07 max: 0.0248627
deltaT = 0.000168248
Time = 0.0051208

PIMPLE: iteration 1
smoothSolver:  Solving for alpha.water, Initial residual = 0.00458635, Final residual = 1.64274e-11, No Iterations 2
Phase-1 volume fraction = 3.82648e-06  Min(alpha.water) = -4.65195e-74  Max(alpha.water) = 1
MULES: Correcting alpha.water
MULES: Correcting alpha.water
Phase-1 volume fraction = 3.82648e-06  Min(alpha.water) = -5.47295e-08  Max(alpha.water) = 1
smoothSolver:  Solving for Ux, Initial residual = 0.000683852, Final residual = 1.94706e-07, No Iterations 2
smoothSolver:  Solving for Uy, Initial residual = 0.00491061, Final residual = 4.06363e-07, No Iterations 3
smoothSolver:  Solving for Uz, Initial residual = 0.00154221, Final residual = 4.32773e-07, No Iterations 2
DICPCG:  Solving for p_rgh, Initial residual = 0.0106961, Final residual = 0.000408801, No Iterations 3
time step continuity errors : sum local = 2.3539e-08, global = 3.37684e-11, cumulative = 1.43232e-07
DICPCG:  Solving for p_rgh, Initial residual = 0.00293939, Final residual = 0.000118177, No Iterations 5
time step continuity errors : sum local = 6.81898e-09, global = 2.96051e-11, cumulative = 1.43261e-07
DICPCG:  Solving for p_rgh, Initial residual = 0.000788749, Final residual = 9.81431e-08, No Iterations 843
time step continuity errors : sum local = 5.65848e-12, global = -1.524e-15, cumulative = 1.43261e-07
smoothSolver:  Solving for omega, Initial residual = 0.000553603, Final residual = 7.86795e-07, No Iterations 2
bounding omega, min: -28.6073 max: 4146.7 average: 46.3842
smoothSolver:  Solving for k, Initial residual = 0.0142582, Final residual = 2.59346e-06, No Iterations 4
bounding k, min: -0.00686103 max: 0.716464 average: 0.000247416
ExecutionTime = 88.81 s  ClockTime = 91 s

Courant Number mean: 0.00358081 max: 1.00144
Interface Courant Number mean: 1.66998e-07 max: 0.0245662
deltaT = 0.000168248
Time = 0.00528905

PIMPLE: iteration 1
smoothSolver:  Solving for alpha.water, Initial residual = 0.00443628, Final residual = 1.5631e-11, No Iterations 2
Phase-1 volume fraction = 3.9522e-06  Min(alpha.water) = -6.53553e-74  Max(alpha.water) = 1
MULES: Correcting alpha.water
MULES: Correcting alpha.water
Phase-1 volume fraction = 3.9522e-06  Min(alpha.water) = -5.92188e-08  Max(alpha.water) = 1
smoothSolver:  Solving for Ux, Initial residual = 0.00069382, Final residual = 9.24199e-07, No Iterations 2
smoothSolver:  Solving for Uy, Initial residual = 0.005127, Final residual = 9.1873e-07, No Iterations 7
smoothSolver:  Solving for Uz, Initial residual = 0.00156971, Final residual = 8.83148e-07, No Iterations 3
DICPCG:  Solving for p_rgh, Initial residual = 0.0115143, Final residual = 0.000542047, No Iterations 5
time step continuity errors : sum local = 3.1248e-08, global = 1.04373e-10, cumulative = 1.43366e-07
DICPCG:  Solving for p_rgh, Initial residual = 0.00417326, Final residual = 0.000202549, No Iterations 20
time step continuity errors : sum local = 1.1723e-08, global = -3.64969e-10, cumulative = 1.43001e-07
DICPCG:  Solving for p_rgh, Initial residual = 0.00165257, Final residual = 9.80411e-08, No Iterations 846
time step continuity errors : sum local = 5.67143e-12, global = 3.67813e-15, cumulative = 1.43001e-07
smoothSolver:  Solving for omega, Initial residual = 0.000578732, Final residual = 1.85407e-06, No Iterations 2
bounding omega, min: -20.8336 max: 4146.7 average: 46.4734
smoothSolver:  Solving for k, Initial residual = 0.0139812, Final residual = 5.55192e-06, No Iterations 5
bounding k, min: -0.0224593 max: 0.731142 average: 0.000258917
ExecutionTime = 91.44 s  ClockTime = 93 s

Courant Number mean: 0.00358084 max: 1.00243
Interface Courant Number mean: 1.66635e-07 max: 0.0239789
deltaT = 0.000168248
Time = 0.0054573

PIMPLE: iteration 1
smoothSolver:  Solving for alpha.water, Initial residual = 0.00429572, Final residual = 1.4957e-11, No Iterations 2
Phase-1 volume fraction = 4.07793e-06  Min(alpha.water) = -9.06329e-74  Max(alpha.water) = 1
MULES: Correcting alpha.water
MULES: Correcting alpha.water
Phase-1 volume fraction = 4.07793e-06  Min(alpha.water) = -6.3904e-08  Max(alpha.water) = 1
smoothSolver:  Solving for Ux, Initial residual = 0.00067247, Final residual = 5.25477e-07, No Iterations 2
smoothSolver:  Solving for Uy, Initial residual = 0.00486079, Final residual = 5.98795e-07, No Iterations 4
smoothSolver:  Solving for Uz, Initial residual = 0.00152381, Final residual = 5.87744e-07, No Iterations 2
DICPCG:  Solving for p_rgh, Initial residual = 0.0127903, Final residual = 0.000618093, No Iterations 5
time step continuity errors : sum local = 3.57185e-08, global = 5.70562e-11, cumulative = 1.43058e-07
DICPCG:  Solving for p_rgh, Initial residual = 0.00477329, Final residual = 0.000228452, No Iterations 19
time step continuity errors : sum local = 1.3201e-08, global = -3.10131e-10, cumulative = 1.42748e-07
DICPCG:  Solving for p_rgh, Initial residual = 0.00194004, Final residual = 9.85172e-08, No Iterations 873
time step continuity errors : sum local = 5.68418e-12, global = -1.81684e-15, cumulative = 1.42748e-07
smoothSolver:  Solving for omega, Initial residual = 0.00054381, Final residual = 8.77175e-07, No Iterations 2
bounding omega, min: -22.0934 max: 4146.7 average: 46.5626
smoothSolver:  Solving for k, Initial residual = 0.0135115, Final residual = 6.70661e-06, No Iterations 4
bounding k, min: -0.00478484 max: 0.745094 average: 0.000270766
ExecutionTime = 94.25 s  ClockTime = 96 s

Courant Number mean: 0.00358085 max: 1.00344
Interface Courant Number mean: 1.66223e-07 max: 0.0231882
deltaT = 0.000168248
Time = 0.00562555

PIMPLE: iteration 1
smoothSolver:  Solving for alpha.water, Initial residual = 0.00416379, Final residual = 1.43858e-11, No Iterations 2
Phase-1 volume fraction = 4.20365e-06  Min(alpha.water) = -1.24431e-73  Max(alpha.water) = 1
MULES: Correcting alpha.water
MULES: Correcting alpha.water
Phase-1 volume fraction = 4.20365e-06  Min(alpha.water) = -6.90059e-08  Max(alpha.water) = 1
smoothSolver:  Solving for Ux, Initial residual = 0.000656559, Final residual = 7.78223e-07, No Iterations 2
smoothSolver:  Solving for Uy, Initial residual = 0.00474779, Final residual = 7.89535e-07, No Iterations 4
smoothSolver:  Solving for Uz, Initial residual = 0.00148404, Final residual = 9.16017e-07, No Iterations 2
DICPCG:  Solving for p_rgh, Initial residual = 0.0103599, Final residual = 0.000422094, No Iterations 3
time step continuity errors : sum local = 2.44208e-08, global = 2.87757e-10, cumulative = 1.43035e-07
DICPCG:  Solving for p_rgh, Initial residual = 0.00302173, Final residual = 0.000139693, No Iterations 6
time step continuity errors : sum local = 8.10134e-09, global = 1.68193e-10, cumulative = 1.43203e-07
DICPCG:  Solving for p_rgh, Initial residual = 0.000904518, Final residual = 9.70711e-08, No Iterations 858
time step continuity errors : sum local = 5.62516e-12, global = 3.02672e-15, cumulative = 1.43203e-07
smoothSolver:  Solving for omega, Initial residual = 0.000534338, Final residual = 8.06978e-07, No Iterations 2
bounding omega, min: -30.9312 max: 4146.7 average: 46.6514
smoothSolver:  Solving for k, Initial residual = 0.0132712, Final residual = 7.32012e-06, No Iterations 4
bounding k, min: -0.00591214 max: 0.758964 average: 0.000282773
ExecutionTime = 96.83 s  ClockTime = 99 s

Courant Number mean: 0.00358087 max: 1.00468
Interface Courant Number mean: 1.65793e-07 max: 0.0222928
deltaT = 0.000168248
Time = 0.00579379

PIMPLE: iteration 1
smoothSolver:  Solving for alpha.water, Initial residual = 0.00403971, Final residual = 1.38538e-11, No Iterations 2
Phase-1 volume fraction = 4.32937e-06  Min(alpha.water) = -1.69096e-73  Max(alpha.water) = 1
MULES: Correcting alpha.water
MULES: Correcting alpha.water
Phase-1 volume fraction = 4.32937e-06  Min(alpha.water) = -7.3902e-08  Max(alpha.water) = 1
smoothSolver:  Solving for Ux, Initial residual = 0.000644319, Final residual = 4.54356e-07, No Iterations 2
smoothSolver:  Solving for Uy, Initial residual = 0.00464441, Final residual = 8.78147e-07, No Iterations 3
smoothSolver:  Solving for Uz, Initial residual = 0.00145886, Final residual = 8.73269e-07, No Iterations 2
DICPCG:  Solving for p_rgh, Initial residual = 0.00997414, Final residual = 0.000379937, No Iterations 3
time step continuity errors : sum local = 2.20099e-08, global = -1.97689e-10, cumulative = 1.43006e-07
DICPCG:  Solving for p_rgh, Initial residual = 0.00287325, Final residual = 0.000136669, No Iterations 4
time step continuity errors : sum local = 7.93178e-09, global = -8.29258e-11, cumulative = 1.42923e-07
DICPCG:  Solving for p_rgh, Initial residual = 0.000747048, Final residual = 9.97648e-08, No Iterations 614
time step continuity errors : sum local = 5.78515e-12, global = 7.94981e-13, cumulative = 1.42924e-07
smoothSolver:  Solving for omega, Initial residual = 0.000527238, Final residual = 8.21694e-07, No Iterations 2
bounding omega, min: -21.8213 max: 4146.7 average: 46.7385
smoothSolver:  Solving for k, Initial residual = 0.0129985, Final residual = 5.259e-06, No Iterations 4
bounding k, min: -0.00740389 max: 0.776881 average: 0.000294957
ExecutionTime = 98.87 s  ClockTime = 101 s

Courant Number mean: 0.00358088 max: 1.00602
Interface Courant Number mean: 1.65392e-07 max: 0.0214347
deltaT = 0.000168248
Time = 0.00596204

PIMPLE: iteration 1
smoothSolver:  Solving for alpha.water, Initial residual = 0.00392281, Final residual = 1.35334e-11, No Iterations 2
Phase-1 volume fraction = 4.45509e-06  Min(alpha.water) = -2.27419e-73  Max(alpha.water) = 1
MULES: Correcting alpha.water
MULES: Correcting alpha.water
Phase-1 volume fraction = 4.45509e-06  Min(alpha.water) = -8.01226e-08  Max(alpha.water) = 1
smoothSolver:  Solving for Ux, Initial residual = 0.000636564, Final residual = 6.95201e-07, No Iterations 2
smoothSolver:  Solving for Uy, Initial residual = 0.00459466, Final residual = 9.29377e-07, No Iterations 7
smoothSolver:  Solving for Uz, Initial residual = 0.00145441, Final residual = 7.21393e-07, No Iterations 3
DICPCG:  Solving for p_rgh, Initial residual = 0.00956207, Final residual = 0.000432134, No Iterations 3
time step continuity errors : sum local = 2.50614e-08, global = 5.2257e-11, cumulative = 1.42976e-07
DICPCG:  Solving for p_rgh, Initial residual = 0.00288911, Final residual = 0.000136468, No Iterations 6
time step continuity errors : sum local = 7.93361e-09, global = 7.29458e-11, cumulative = 1.43049e-07
DICPCG:  Solving for p_rgh, Initial residual = 0.000888801, Final residual = 9.97054e-08, No Iterations 849
time step continuity errors : sum local = 5.79174e-12, global = -1.33635e-16, cumulative = 1.43049e-07
smoothSolver:  Solving for omega, Initial residual = 0.000523055, Final residual = 8.78829e-07, No Iterations 2
bounding omega, min: -30.0728 max: 4146.7 average: 46.8244
smoothSolver:  Solving for k, Initial residual = 0.0126042, Final residual = 4.0573e-06, No Iterations 4
bounding k, min: -0.0226355 max: 0.804247 average: 0.000307247
ExecutionTime = 101.39 s  ClockTime = 103 s

Courant Number mean: 0.00358088 max: 1.00749
Interface Courant Number mean: 1.64989e-07 max: 0.0206258
deltaT = 0.000168248
Time = 0.00613029

PIMPLE: iteration 1
smoothSolver:  Solving for alpha.water, Initial residual = 0.00381247, Final residual = 1.33407e-11, No Iterations 2
Phase-1 volume fraction = 4.58081e-06  Min(alpha.water) = -2.99571e-73  Max(alpha.water) = 1
MULES: Correcting alpha.water
MULES: Correcting alpha.water
Phase-1 volume fraction = 4.58081e-06  Min(alpha.water) = -8.68547e-08  Max(alpha.water) = 1
smoothSolver:  Solving for Ux, Initial residual = 0.000623792, Final residual = 5.18275e-07, No Iterations 2
smoothSolver:  Solving for Uy, Initial residual = 0.00451664, Final residual = 8.72193e-07, No Iterations 9
smoothSolver:  Solving for Uz, Initial residual = 0.00142122, Final residual = 5.19785e-07, No Iterations 3
DICPCG:  Solving for p_rgh, Initial residual = 0.00974275, Final residual = 0.000417338, No Iterations 3
time step continuity errors : sum local = 2.42598e-08, global = -3.97969e-10, cumulative = 1.42651e-07
DICPCG:  Solving for p_rgh, Initial residual = 0.00295628, Final residual = 0.000126696, No Iterations 5
time step continuity errors : sum local = 7.37842e-09, global = -2.59093e-10, cumulative = 1.42392e-07
DICPCG:  Solving for p_rgh, Initial residual = 0.000837522, Final residual = 9.64438e-08, No Iterations 855
time step continuity errors : sum local = 5.6118e-12, global = 1.06597e-15, cumulative = 1.42392e-07
smoothSolver:  Solving for omega, Initial residual = 0.000514578, Final residual = 8.39246e-07, No Iterations 2
bounding omega, min: -25.7377 max: 4146.7 average: 46.9101
smoothSolver:  Solving for k, Initial residual = 0.0122074, Final residual = 4.8674e-06, No Iterations 4
bounding k, min: -0.00671891 max: 0.831326 average: 0.000319851
ExecutionTime = 103.9 s  ClockTime = 106 s

Courant Number mean: 0.00358088 max: 1.00906
Interface Courant Number mean: 1.64599e-07 max: 0.0199101
deltaT = 0.000168248
Time = 0.00629854

PIMPLE: iteration 1
smoothSolver:  Solving for alpha.water, Initial residual = 0.00370817, Final residual = 1.3375e-11, No Iterations 2
Phase-1 volume fraction = 4.70654e-06  Min(alpha.water) = -3.91431e-73  Max(alpha.water) = 1
MULES: Correcting alpha.water
MULES: Correcting alpha.water
Phase-1 volume fraction = 4.70654e-06  Min(alpha.water) = -9.43661e-08  Max(alpha.water) = 1
smoothSolver:  Solving for Ux, Initial residual = 0.000623051, Final residual = 9.83645e-07, No Iterations 2
smoothSolver:  Solving for Uy, Initial residual = 0.00453685, Final residual = 8.80196e-07, No Iterations 10
smoothSolver:  Solving for Uz, Initial residual = 0.00142471, Final residual = 6.87889e-07, No Iterations 4
DICPCG:  Solving for p_rgh, Initial residual = 0.00927259, Final residual = 0.00042096, No Iterations 3
time step continuity errors : sum local = 2.45002e-08, global = -1.12765e-10, cumulative = 1.42279e-07
DICPCG:  Solving for p_rgh, Initial residual = 0.00284845, Final residual = 0.000139403, No Iterations 12
time step continuity errors : sum local = 8.13256e-09, global = -7.58271e-11, cumulative = 1.42203e-07
DICPCG:  Solving for p_rgh, Initial residual = 0.00104853, Final residual = 9.5845e-08, No Iterations 827
time step continuity errors : sum local = 5.58762e-12, global = -1.50672e-15, cumulative = 1.42203e-07
smoothSolver:  Solving for omega, Initial residual = 0.000521942, Final residual = 1.07106e-06, No Iterations 2
bounding omega, min: -32.5727 max: 4146.69 average: 46.9946
smoothSolver:  Solving for k, Initial residual = 0.0119008, Final residual = 7.93832e-06, No Iterations 5
bounding k, min: -0.00593781 max: 0.857679 average: 0.000332498
ExecutionTime = 106.45 s  ClockTime = 108 s

Courant Number mean: 0.00358087 max: 1.01073
Interface Courant Number mean: 1.64287e-07 max: 0.0192834
deltaT = 0.000168248
Time = 0.00646679

PIMPLE: iteration 1
smoothSolver:  Solving for alpha.water, Initial residual = 0.00360941, Final residual = 1.37617e-11, No Iterations 2
Phase-1 volume fraction = 4.83226e-06  Min(alpha.water) = -5.07165e-73  Max(alpha.water) = 1
MULES: Correcting alpha.water
MULES: Correcting alpha.water
Phase-1 volume fraction = 4.83226e-06  Min(alpha.water) = -1.02777e-07  Max(alpha.water) = 1
smoothSolver:  Solving for Ux, Initial residual = 0.000609093, Final residual = 6.02329e-07, No Iterations 2
smoothSolver:  Solving for Uy, Initial residual = 0.00439189, Final residual = 8.94211e-07, No Iterations 4
smoothSolver:  Solving for Uz, Initial residual = 0.00138615, Final residual = 4.08496e-07, No Iterations 3
DICPCG:  Solving for p_rgh, Initial residual = 0.00953423, Final residual = 0.000455616, No Iterations 3
time step continuity errors : sum local = 2.65947e-08, global = 1.98153e-11, cumulative = 1.42223e-07
DICPCG:  Solving for p_rgh, Initial residual = 0.00296429, Final residual = 0.00013655, No Iterations 5
time step continuity errors : sum local = 7.98476e-09, global = 4.58577e-11, cumulative = 1.42269e-07
DICPCG:  Solving for p_rgh, Initial residual = 0.000857587, Final residual = 9.52552e-08, No Iterations 851
time step continuity errors : sum local = 5.56568e-12, global = 2.17132e-15, cumulative = 1.42269e-07
smoothSolver:  Solving for omega, Initial residual = 0.000506252, Final residual = 9.33712e-07, No Iterations 2
bounding omega, min: -33.2611 max: 4146.69 average: 47.0781
smoothSolver:  Solving for k, Initial residual = 0.0114998, Final residual = 5.88099e-06, No Iterations 4
bounding k, min: -0.00450883 max: 0.883363 average: 0.000345221
ExecutionTime = 108.97 s  ClockTime = 111 s

Courant Number mean: 0.00358087 max: 1.01246
Interface Courant Number mean: 1.63996e-07 max: 0.0187512
deltaT = 0.000168248
Time = 0.00663503

PIMPLE: iteration 1
smoothSolver:  Solving for alpha.water, Initial residual = 0.00351576, Final residual = 1.42685e-11, No Iterations 2
Phase-1 volume fraction = 4.95798e-06  Min(alpha.water) = -6.34129e-73  Max(alpha.water) = 1
MULES: Correcting alpha.water
MULES: Correcting alpha.water
Phase-1 volume fraction = 4.95798e-06  Min(alpha.water) = -1.12219e-07  Max(alpha.water) = 1
smoothSolver:  Solving for Ux, Initial residual = 0.000610172, Final residual = 6.25184e-07, No Iterations 3
smoothSolver:  Solving for Uy, Initial residual = 0.00434836, Final residual = 8.24747e-07, No Iterations 7
smoothSolver:  Solving for Uz, Initial residual = 0.00138991, Final residual = 7.18524e-07, No Iterations 4
DICPCG:  Solving for p_rgh, Initial residual = 0.00898081, Final residual = 0.000410497, No Iterations 3
time step continuity errors : sum local = 2.39907e-08, global = -9.13789e-11, cumulative = 1.42177e-07
DICPCG:  Solving for p_rgh, Initial residual = 0.00283889, Final residual = 0.000134512, No Iterations 13
time step continuity errors : sum local = 7.8826e-09, global = -1.78399e-10, cumulative = 1.41999e-07
DICPCG:  Solving for p_rgh, Initial residual = 0.00106369, Final residual = 9.84486e-08, No Iterations 840
time step continuity errors : sum local = 5.76598e-12, global = 8.2756e-16, cumulative = 1.41999e-07
smoothSolver:  Solving for omega, Initial residual = 0.000498086, Final residual = 9.50222e-07, No Iterations 2
bounding omega, min: -17.0742 max: 4146.69 average: 47.1617
smoothSolver:  Solving for k, Initial residual = 0.0112574, Final residual = 6.70118e-06, No Iterations 5
bounding k, min: -0.00670976 max: 0.908517 average: 0.00035841
ExecutionTime = 111.33 s  ClockTime = 113 s

Courant Number mean: 0.00358088 max: 1.01426
Interface Courant Number mean: 1.63732e-07 max: 0.0183042
deltaT = 0.000168248
Time = 0.00680328

PIMPLE: iteration 1
smoothSolver:  Solving for alpha.water, Initial residual = 0.00342684, Final residual = 1.48274e-11, No Iterations 2
Phase-1 volume fraction = 5.0837e-06  Min(alpha.water) = -7.52397e-73  Max(alpha.water) = 1
MULES: Correcting alpha.water
MULES: Correcting alpha.water
Phase-1 volume fraction = 5.0837e-06  Min(alpha.water) = -1.23918e-07  Max(alpha.water) = 1
smoothSolver:  Solving for Ux, Initial residual = 0.000654632, Final residual = 7.25553e-07, No Iterations 3
smoothSolver:  Solving for Uy, Initial residual = 0.00443705, Final residual = 7.87852e-07, No Iterations 5
smoothSolver:  Solving for Uz, Initial residual = 0.00145543, Final residual = 8.74754e-07, No Iterations 3
DICPCG:  Solving for p_rgh, Initial residual = 0.00927508, Final residual = 0.000439224, No Iterations 3
time step continuity errors : sum local = 2.5747e-08, global = 2.05242e-11, cumulative = 1.4202e-07
DICPCG:  Solving for p_rgh, Initial residual = 0.00300118, Final residual = 0.000147655, No Iterations 5
time step continuity errors : sum local = 8.67315e-09, global = 1.07643e-10, cumulative = 1.42127e-07
DICPCG:  Solving for p_rgh, Initial residual = 0.000861007, Final residual = 9.89651e-08, No Iterations 862
time step continuity errors : sum local = 5.80814e-12, global = 1.15697e-15, cumulative = 1.42127e-07
smoothSolver:  Solving for omega, Initial residual = 0.000498036, Final residual = 8.45892e-07, No Iterations 2
bounding omega, min: -20.7738 max: 4146.69 average: 47.2445
smoothSolver:  Solving for k, Initial residual = 0.0111957, Final residual = 9.65629e-06, No Iterations 35
bounding k, min: -0.00765086 max: 0.93335 average: 0.000371947
ExecutionTime = 114.27 s  ClockTime = 116 s

Courant Number mean: 0.00358089 max: 1.01609
Interface Courant Number mean: 1.63505e-07 max: 0.0179409
deltaT = 0.000168248
Time = 0.00697153

PIMPLE: iteration 1
smoothSolver:  Solving for alpha.water, Initial residual = 0.00334229, Final residual = 1.5525e-11, No Iterations 2
Phase-1 volume fraction = 5.20943e-06  Min(alpha.water) = -8.15485e-73  Max(alpha.water) = 1
MULES: Correcting alpha.water
MULES: Correcting alpha.water
Phase-1 volume fraction = 5.20943e-06  Min(alpha.water) = -1.64212e-07  Max(alpha.water) = 1
smoothSolver:  Solving for Ux, Initial residual = 0.000596904, Final residual = 8.82269e-07, No Iterations 2
smoothSolver:  Solving for Uy, Initial residual = 0.00430053, Final residual = 8.9622e-07, No Iterations 4
smoothSolver:  Solving for Uz, Initial residual = 0.00137496, Final residual = 6.37165e-07, No Iterations 3
DICPCG:  Solving for p_rgh, Initial residual = 0.00968981, Final residual = 0.000418309, No Iterations 4
time step continuity errors : sum local = 2.45464e-08, global = 4.52053e-11, cumulative = 1.42172e-07
DICPCG:  Solving for p_rgh, Initial residual = 0.00346123, Final residual = 0.000170381, No Iterations 4
time step continuity errors : sum local = 1.00158e-08, global = -5.62874e-11, cumulative = 1.42116e-07
DICPCG:  Solving for p_rgh, Initial residual = 0.000977877, Final residual = 9.92137e-08, No Iterations 858
[...]
Phase-1 volume fraction = 7.09526e-06  Min(alpha.water) = -5.5596e-07  Max(alpha.water) = 1
smoothSolver:  Solving for Ux, Initial residual = 0.000516387, Final residual = 5.1058e-07, No Iterations 2
smoothSolver:  Solving for Uy, Initial residual = 0.00375817, Final residual = 9.26872e-07, No Iterations 5
smoothSolver:  Solving for Uz, Initial residual = 0.00118573, Final residual = 6.4289e-07, No Iterations 3
DICPCG:  Solving for p_rgh, Initial residual = 0.0064381, Final residual = 0.000272606, No Iterations 3
time step continuity errors : sum local = 1.60785e-08, global = -7.86189e-11, cumulative = 1.41258e-07
DICPCG:  Solving for p_rgh, Initial residual = 0.00216515, Final residual = 9.97616e-05, No Iterations 14
time step continuity errors : sum local = 5.89551e-09, global = -3.06905e-10, cumulative = 1.40952e-07
DICPCG:  Solving for p_rgh, Initial residual = 0.000839886, Final residual = 9.67537e-08, No Iterations 831
time step continuity errors : sum local = 5.71662e-12, global = 1.03895e-15, cumulative = 1.40952e-07
smoothSolver:  Solving for omega, Initial residual = 0.000425944, Final residual = 9.14486e-06, No Iterations 1
bounding omega, min: -30.079 max: 4146.68 average: 48.487
smoothSolver:  Solving for k, Initial residual = 0.00775325, Final residual = 8.84747e-06, No Iterations 4
bounding k, min: -0.00723032 max: 1.35432 average: 0.000611379
ExecutionTime = 156.5 s  ClockTime = 158 s

Courant Number mean: 0.00358183 max: 1.03839
Interface Courant Number mean: 1.628e-07 max: 0.0155651
deltaT = 0.000168248
Time = 0.0096635

PIMPLE: iteration 1
smoothSolver:  Solving for alpha.water, Initial residual = 0.00239677, Final residual = 1.41194e-11, No Iterations 2
Phase-1 volume fraction = 7.22098e-06  Min(alpha.water) = -1.33489e-08  Max(alpha.water) = 1
MULES: Correcting alpha.water
MULES: Correcting alpha.water
Phase-1 volume fraction = 7.22098e-06  Min(alpha.water) = -1.33489e-08  Max(alpha.water) = 1
smoothSolver:  Solving for Ux, Initial residual = 0.000541814, Final residual = 9.975e-07, No Iterations 5
smoothSolver:  Solving for Uy, Initial residual = 0.00394981, Final residual = 9.00187e-07, No Iterations 14
smoothSolver:  Solving for Uz, Initial residual = 0.00124243, Final residual = 8.91726e-07, No Iterations 5
DICPCG:  Solving for p_rgh, Initial residual = 0.00677024, Final residual = 0.000327667, No Iterations 4
time step continuity errors : sum local = 1.93068e-08, global = 3.37869e-11, cumulative = 1.40985e-07
DICPCG:  Solving for p_rgh, Initial residual = 0.00266174, Final residual = 0.00012614, No Iterations 15
time step continuity errors : sum local = 7.44915e-09, global = -4.18697e-10, cumulative = 1.40567e-07
DICPCG:  Solving for p_rgh, Initial residual = 0.00110089, Final residual = 9.83643e-08, No Iterations 855
time step continuity errors : sum local = 5.80944e-12, global = 1.54611e-16, cumulative = 1.40567e-07
smoothSolver:  Solving for omega, Initial residual = 0.000429236, Final residual = 1.80627e-06, No Iterations 2
bounding omega, min: -19.1386 max: 4146.68 average: 48.5611
smoothSolver:  Solving for k, Initial residual = 0.00768834, Final residual = 8.55049e-06, No Iterations 7
bounding k, min: -0.00745507 max: 1.38221 average: 0.000627762
ExecutionTime = 159.22 s  ClockTime = 161 s

Courant Number mean: 0.00358197 max: 1.03893
Interface Courant Number mean: 1.62815e-07 max: 0.0155621
deltaT = 0.000168248
Time = 0.00983175

PIMPLE: iteration 1
smoothSolver:  Solving for alpha.water, Initial residual = 0.00235525, Final residual = 1.85117e-11, No Iterations 2
Phase-1 volume fraction = 7.3467e-06  Min(alpha.water) = -1.31776e-08  Max(alpha.water) = 1
MULES: Correcting alpha.water
MULES: Correcting alpha.water
Phase-1 volume fraction = 7.3467e-06  Min(alpha.water) = -1.31776e-08  Max(alpha.water) = 1
smoothSolver:  Solving for Ux, Initial residual = 0.000518583, Final residual = 6.00998e-07, No Iterations 2
smoothSolver:  Solving for Uy, Initial residual = 0.00382786, Final residual = 7.716e-07, No Iterations 5
smoothSolver:  Solving for Uz, Initial residual = 0.00123182, Final residual = 7.53299e-07, No Iterations 3
DICPCG:  Solving for p_rgh, Initial residual = 0.00747933, Final residual = 0.000357632, No Iterations 4
time step continuity errors : sum local = 2.10615e-08, global = 2.52714e-10, cumulative = 1.40819e-07
DICPCG:  Solving for p_rgh, Initial residual = 0.00315208, Final residual = 0.000149979, No Iterations 15
time step continuity errors : sum local = 8.8404e-09, global = 6.6654e-10, cumulative = 1.41486e-07
DICPCG:  Solving for p_rgh, Initial residual = 0.0014067, Final residual = 9.45696e-08, No Iterations 847
time step continuity errors : sum local = 5.57221e-12, global = -8.03284e-17, cumulative = 1.41486e-07
smoothSolver:  Solving for omega, Initial residual = 0.000417227, Final residual = 8.78058e-06, No Iterations 1
bounding omega, min: -15.2666 max: 4146.68 average: 48.6333
smoothSolver:  Solving for k, Initial residual = 0.00751596, Final residual = 8.28953e-06, No Iterations 4
bounding k, min: -0.0093661 max: 1.40961 average: 0.000644171
ExecutionTime = 161.74 s  ClockTime = 164 s

Courant Number mean: 0.00358211 max: 1.03936
Interface Courant Number mean: 1.6283e-07 max: 0.0155594
deltaT = 0.000168248
Time = 0.01

PIMPLE: iteration 1
smoothSolver:  Solving for alpha.water, Initial residual = 0.00231517, Final residual = 2.45294e-11, No Iterations 2
Phase-1 volume fraction = 7.47243e-06  Min(alpha.water) = -1.30067e-08  Max(alpha.water) = 1
MULES: Correcting alpha.water
MULES: Correcting alpha.water
Phase-1 volume fraction = 7.47243e-06  Min(alpha.water) = -1.30067e-08  Max(alpha.water) = 1
smoothSolver:  Solving for Ux, Initial residual = 0.00050947, Final residual = 5.65306e-07, No Iterations 2
smoothSolver:  Solving for Uy, Initial residual = 0.00371783, Final residual = 9.97777e-07, No Iterations 5
smoothSolver:  Solving for Uz, Initial residual = 0.00116721, Final residual = 7.94965e-07, No Iterations 3
DICPCG:  Solving for p_rgh, Initial residual = 0.00659164, Final residual = 0.000301718, No Iterations 3
time step continuity errors : sum local = 1.76767e-08, global = -3.25552e-10, cumulative = 1.4116e-07
DICPCG:  Solving for p_rgh, Initial residual = 0.00218656, Final residual = 0.000105398, No Iterations 15
time step continuity errors : sum local = 6.18624e-09, global = -6.89885e-10, cumulative = 1.40471e-07
DICPCG:  Solving for p_rgh, Initial residual = 0.000918446, Final residual = 9.66047e-08, No Iterations 857
time step continuity errors : sum local = 5.66928e-12, global = -2.4418e-16, cumulative = 1.40471e-07
smoothSolver:  Solving for omega, Initial residual = 0.000419459, Final residual = 9.99768e-06, No Iterations 1
bounding omega, min: -33.9553 max: 4146.68 average: 48.7055
smoothSolver:  Solving for k, Initial residual = 0.00737606, Final residual = 8.35471e-06, No Iterations 4
bounding k, min: -0.00534059 max: 1.43657 average: 0.000660822
ExecutionTime = 164.89 s  ClockTime = 168 s

Courant Number mean: 0.00358225 max: 1.0397
Interface Courant Number mean: 1.62849e-07 max: 0.0155863
deltaT = 0.00016129
Time = 0.0101613

PIMPLE: iteration 1
smoothSolver:  Solving for alpha.water, Initial residual = 0.0021827, Final residual = 2.58022e-11, No Iterations 2
Phase-1 volume fraction = 7.59295e-06  Min(alpha.water) = -1.28427e-08  Max(alpha.water) = 1
MULES: Correcting alpha.water
MULES: Correcting alpha.water
Phase-1 volume fraction = 7.59295e-06  Min(alpha.water) = -1.28427e-08  Max(alpha.water) = 1
smoothSolver:  Solving for Ux, Initial residual = 0.000483856, Final residual = 5.08699e-07, No Iterations 2
smoothSolver:  Solving for Uy, Initial residual = 0.00351822, Final residual = 8.31768e-07, No Iterations 5
smoothSolver:  Solving for Uz, Initial residual = 0.00110695, Final residual = 6.63328e-07, No Iterations 3
DICPCG:  Solving for p_rgh, Initial residual = 0.00752297, Final residual = 0.000317511, No Iterations 3
time step continuity errors : sum local = 1.72843e-08, global = 1.46801e-10, cumulative = 1.40617e-07
DICPCG:  Solving for p_rgh, Initial residual = 0.00228308, Final residual = 0.000112596, No Iterations 7
time step continuity errors : sum local = 6.15172e-09, global = 1.92485e-10, cumulative = 1.4081e-07
DICPCG:  Solving for p_rgh, Initial residual = 0.00073759, Final residual = 9.81384e-08, No Iterations 849
time step continuity errors : sum local = 5.36162e-12, global = 1.26584e-15, cumulative = 1.4081e-07
smoothSolver:  Solving for omega, Initial residual = 0.000394134, Final residual = 8.01637e-06, No Iterations 1
bounding omega, min: -10.3507 max: 4146.68 average: 48.7746
smoothSolver:  Solving for k, Initial residual = 0.00693911, Final residual = 8.30514e-06, No Iterations 4
bounding k, min: -0.00534782 max: 1.46262 average: 0.000676902
ExecutionTime = 167.88 s  ClockTime = 171 s

Courant Number mean: 0.00343424 max: 0.996915
Interface Courant Number mean: 1.56128e-07 max: 0.0149739
deltaT = 0.00016129
Time = 0.0103226

PIMPLE: iteration 1
smoothSolver:  Solving for alpha.water, Initial residual = 0.00214829, Final residual = 3.18969e-11, No Iterations 2
Phase-1 volume fraction = 7.71347e-06  Min(alpha.water) = -1.26785e-08  Max(alpha.water) = 1
MULES: Correcting alpha.water
MULES: Correcting alpha.water
Phase-1 volume fraction = 7.71347e-06  Min(alpha.water) = -1.26785e-08  Max(alpha.water) = 1
smoothSolver:  Solving for Ux, Initial residual = 0.000485311, Final residual = 4.29423e-07, No Iterations 3
smoothSolver:  Solving for Uy, Initial residual = 0.00354372, Final residual = 6.36979e-07, No Iterations 7
smoothSolver:  Solving for Uz, Initial residual = 0.00111193, Final residual = 9.36677e-07, No Iterations 3
DICPCG:  Solving for p_rgh, Initial residual = 0.00586629, Final residual = 0.000256328, No Iterations 4
time step continuity errors : sum local = 1.39379e-08, global = 2.48556e-11, cumulative = 1.40835e-07
DICPCG:  Solving for p_rgh, Initial residual = 0.00212994, Final residual = 9.57045e-05, No Iterations 14
time step continuity errors : sum local = 5.2111e-09, global = -2.85428e-10, cumulative = 1.40549e-07
DICPCG:  Solving for p_rgh, Initial residual = 0.000846922, Final residual = 9.36277e-08, No Iterations 857
time step continuity errors : sum local = 5.09778e-12, global = -9.68596e-17, cumulative = 1.40549e-07
smoothSolver:  Solving for omega, Initial residual = 0.000392256, Final residual = 8.69179e-06, No Iterations 1
bounding omega, min: -15.4417 max: 4146.68 average: 48.8421
smoothSolver:  Solving for k, Initial residual = 0.00683249, Final residual = 6.25918e-06, No Iterations 5
bounding k, min: -0.00534237 max: 1.48909 average: 0.00069301
ExecutionTime = 171.3 s  ClockTime = 175 s

Courant Number mean: 0.00343439 max: 0.997039
Interface Courant Number mean: 1.56142e-07 max: 0.0150059
deltaT = 0.00016129
Time = 0.0104839

PIMPLE: iteration 1
smoothSolver:  Solving for alpha.water, Initial residual = 0.00211496, Final residual = 3.76427e-11, No Iterations 2
Phase-1 volume fraction = 7.834e-06  Min(alpha.water) = -1.2514e-08  Max(alpha.water) = 1
MULES: Correcting alpha.water
MULES: Correcting alpha.water
Phase-1 volume fraction = 7.834e-06  Min(alpha.water) = -1.2514e-08  Max(alpha.water) = 1
smoothSolver:  Solving for Ux, Initial residual = 0.000486842, Final residual = 5.96748e-07, No Iterations 2
smoothSolver:  Solving for Uy, Initial residual = 0.00356381, Final residual = 7.97067e-07, No Iterations 5
smoothSolver:  Solving for Uz, Initial residual = 0.00112524, Final residual = 6.36031e-07, No Iterations 3
DICPCG:  Solving for p_rgh, Initial residual = 0.00638039, Final residual = 0.000299309, No Iterations 3
time step continuity errors : sum local = 1.62377e-08, global = 1.36947e-11, cumulative = 1.40563e-07
DICPCG:  Solving for p_rgh, Initial residual = 0.00241727, Final residual = 0.000118234, No Iterations 4
time step continuity errors : sum local = 6.42267e-09, global = 7.17183e-11, cumulative = 1.40635e-07
DICPCG:  Solving for p_rgh, Initial residual = 0.000712543, Final residual = 9.80952e-08, No Iterations 844
time step continuity errors : sum local = 5.32756e-12, global = -1.9015e-15, cumulative = 1.40635e-07
smoothSolver:  Solving for omega, Initial residual = 0.000389066, Final residual = 7.81085e-06, No Iterations 1
bounding omega, min: -13.9096 max: 4146.68 average: 48.9098
smoothSolver:  Solving for k, Initial residual = 0.00674675, Final residual = 8.43995e-06, No Iterations 4
bounding k, min: -0.00674178 max: 1.51535 average: 0.000709453
ExecutionTime = 173.18 s  ClockTime = 177 s

Courant Number mean: 0.00343454 max: 0.997093
Interface Courant Number mean: 1.56141e-07 max: 0.0150374
deltaT = 0.00016129
Time = 0.0106452

PIMPLE: iteration 1
smoothSolver:  Solving for alpha.water, Initial residual = 0.00208267, Final residual = 4.27411e-11, No Iterations 2
Phase-1 volume fraction = 7.95452e-06  Min(alpha.water) = -1.23497e-08  Max(alpha.water) = 1
MULES: Correcting alpha.water
MULES: Correcting alpha.water
Phase-1 volume fraction = 7.95452e-06  Min(alpha.water) = -1.23497e-08  Max(alpha.water) = 1
smoothSolver:  Solving for Ux, Initial residual = 0.000481042, Final residual = 5.97613e-07, No Iterations 2
smoothSolver:  Solving for Uy, Initial residual = 0.00352463, Final residual = 8.09392e-07, No Iterations 5
smoothSolver:  Solving for Uz, Initial residual = 0.00110262, Final residual = 6.44847e-07, No Iterations 3
DICPCG:  Solving for p_rgh, Initial residual = 0.00611679, Final residual = 0.000260827, No Iterations 4
time step continuity errors : sum local = 1.40937e-08, global = -5.47209e-12, cumulative = 1.40629e-07
DICPCG:  Solving for p_rgh, Initial residual = 0.0023777, Final residual = 0.000117134, No Iterations 4
time step continuity errors : sum local = 6.33728e-09, global = -6.88387e-11, cumulative = 1.4056e-07
DICPCG:  Solving for p_rgh, Initial residual = 0.000715431, Final residual = 9.71263e-08, No Iterations 860
time step continuity errors : sum local = 5.25335e-12, global = 1.35785e-15, cumulative = 1.4056e-07
smoothSolver:  Solving for omega, Initial residual = 0.000384648, Final residual = 7.46209e-06, No Iterations 1
bounding omega, min: -8.38064 max: 4146.68 average: 48.9777
smoothSolver:  Solving for k, Initial residual = 0.00661735, Final residual = 8.48266e-06, No Iterations 4
bounding k, min: -0.0107049 max: 1.54114 average: 0.000726087
ExecutionTime = 176.33 s  ClockTime = 180 s

Courant Number mean: 0.0034347 max: 0.997091
Interface Courant Number mean: 1.56135e-07 max: 0.0150688
deltaT = 0.00016129
Time = 0.0108065

PIMPLE: iteration 1
smoothSolver:  Solving for alpha.water, Initial residual = 0.00205137, Final residual = 4.69023e-11, No Iterations 2
Phase-1 volume fraction = 8.07504e-06  Min(alpha.water) = -1.21858e-08  Max(alpha.water) = 1
MULES: Correcting alpha.water
MULES: Correcting alpha.water
Phase-1 volume fraction = 8.07504e-06  Min(alpha.water) = -1.21858e-08  Max(alpha.water) = 1
smoothSolver:  Solving for Ux, Initial residual = 0.000475396, Final residual = 6.06539e-07, No Iterations 2
smoothSolver:  Solving for Uy, Initial residual = 0.0034733, Final residual = 8.38242e-07, No Iterations 5
smoothSolver:  Solving for Uz, Initial residual = 0.00109303, Final residual = 6.62135e-07, No Iterations 3
DICPCG:  Solving for p_rgh, Initial residual = 0.00552058, Final residual = 0.000236335, No Iterations 4
time step continuity errors : sum local = 1.27336e-08, global = 2.85771e-11, cumulative = 1.40589e-07
DICPCG:  Solving for p_rgh, Initial residual = 0.00201274, Final residual = 0.000100373, No Iterations 13
time step continuity errors : sum local = 5.41589e-09, global = -1.68199e-10, cumulative = 1.40421e-07
DICPCG:  Solving for p_rgh, Initial residual = 0.000799497, Final residual = 9.95796e-08, No Iterations 841
time step continuity errors : sum local = 5.3729e-12, global = 1.22237e-15, cumulative = 1.40421e-07
smoothSolver:  Solving for omega, Initial residual = 0.000403216, Final residual = 7.9133e-06, No Iterations 1
bounding omega, min: -19.8179 max: 4146.68 average: 49.0447
smoothSolver:  Solving for k, Initial residual = 0.00650623, Final residual = 9.82596e-06, No Iterations 4
bounding k, min: -0.0126106 max: 1.5666 average: 0.000742601
ExecutionTime = 179.5 s  ClockTime = 183 s

Courant Number mean: 0.00343486 max: 0.997038
Interface Courant Number mean: 1.5613e-07 max: 0.0151002
deltaT = 0.00016129
Time = 0.0109677

PIMPLE: iteration 1
smoothSolver:  Solving for alpha.water, Initial residual = 0.00202101, Final residual = 4.99718e-11, No Iterations 2
Phase-1 volume fraction = 8.19556e-06  Min(alpha.water) = -1.20224e-08  Max(alpha.water) = 1
MULES: Correcting alpha.water
MULES: Correcting alpha.water
Phase-1 volume fraction = 8.19556e-06  Min(alpha.water) = -1.20224e-08  Max(alpha.water) = 1
smoothSolver:  Solving for Ux, Initial residual = 0.000485599, Final residual = 5.32523e-07, No Iterations 3
smoothSolver:  Solving for Uy, Initial residual = 0.00352678, Final residual = 6.13464e-07, No Iterations 7
smoothSolver:  Solving for Uz, Initial residual = 0.0011065, Final residual = 6.16989e-07, No Iterations 4
DICPCG:  Solving for p_rgh, Initial residual = 0.00564895, Final residual = 0.000277163, No Iterations 4
time step continuity errors : sum local = 1.48916e-08, global = -8.75242e-11, cumulative = 1.40333e-07
DICPCG:  Solving for p_rgh, Initial residual = 0.00220183, Final residual = 0.000103712, No Iterations 15
time step continuity errors : sum local = 5.58153e-09, global = -3.33194e-10, cumulative = 1.4e-07
DICPCG:  Solving for p_rgh, Initial residual = 0.000914052, Final residual = 9.2744e-08, No Iterations 861
time step continuity errors : sum local = 4.99154e-12, global = -4.35022e-16, cumulative = 1.4e-07
smoothSolver:  Solving for omega, Initial residual = 0.000384463, Final residual = 9.68935e-06, No Iterations 1
bounding omega, min: -30.0011 max: 4146.68 average: 49.1108
smoothSolver:  Solving for k, Initial residual = 0.00645745, Final residual = 7.4551e-06, No Iterations 5
bounding k, min: -0.00349393 max: 1.59179 average: 0.000759193
ExecutionTime = 182.64 s  ClockTime = 186 s

Courant Number mean: 0.00343503 max: 0.996941
Interface Courant Number mean: 1.60701e-07 max: 0.018569
deltaT = 0.00016129
Time = 0.011129

PIMPLE: iteration 1
smoothSolver:  Solving for alpha.water, Initial residual = 0.00199156, Final residual = 5.19603e-11, No Iterations 2
Phase-1 volume fraction = 8.31609e-06  Min(alpha.water) = -1.18601e-08  Max(alpha.water) = 1
MULES: Correcting alpha.water
MULES: Correcting alpha.water
Phase-1 volume fraction = 8.31609e-06  Min(alpha.water) = -1.18601e-08  Max(alpha.water) = 1
smoothSolver:  Solving for Ux, Initial residual = 0.000486121, Final residual = 9.53699e-07, No Iterations 2
smoothSolver:  Solving for Uy, Initial residual = 0.00354055, Final residual = 6.56104e-07, No Iterations 5
smoothSolver:  Solving for Uz, Initial residual = 0.00112055, Final residual = 7.71375e-07, No Iterations 3
DICPCG:  Solving for p_rgh, Initial residual = 0.00703117, Final residual = 0.000293781, No Iterations 4
time step continuity errors : sum local = 1.57813e-08, global = 2.12202e-10, cumulative = 1.40212e-07
DICPCG:  Solving for p_rgh, Initial residual = 0.00285523, Final residual = 0.000139173, No Iterations 4
time step continuity errors : sum local = 7.48391e-09, global = 2.28363e-10, cumulative = 1.40441e-07
DICPCG:  Solving for p_rgh, Initial residual = 0.000907838, Final residual = 9.83707e-08, No Iterations 871
time step continuity errors : sum local = 5.28886e-12, global = -2.04514e-15, cumulative = 1.40441e-07
smoothSolver:  Solving for omega, Initial residual = 0.000381554, Final residual = 8.65671e-06, No Iterations 1
bounding omega, min: -13.9537 max: 4146.68 average: 49.1768
smoothSolver:  Solving for k, Initial residual = 0.00634139, Final residual = 6.66332e-06, No Iterations 5
bounding k, min: -0.00479067 max: 1.61632 average: 0.000775957
ExecutionTime = 185.96 s  ClockTime = 189 s
